
     RDKit          2D

 16 17  0  0  0  0  0  0  0  0999 V2000
   -5.4980   24.5742    5.9454 O   0  0  0  0  0  0  0  0  0  0  0  0
   -4.0772   24.4680    5.4759 C   0  0  0  0  0  0  0  0  0  0  0  0
   -3.6219   25.2512    4.2804 O   0  0  0  0  0  0  0  0  0  0  0  0
   -2.2012   25.1450    3.8110 C   0  0  0  0  0  0  0  0  0  0  0  0
   -0.7805   25.0388    3.3416 C   0  0  0  0  0  0  0  0  0  0  0  0
   -0.1284   24.0787    4.2918 S   0  0  0  0  0  0  0  0  0  0  0  0
    0.6680   24.6863    3.1754 C   0  0  0  0  0  0  0  0  0  0  0  0
    0.7514   25.5915    1.9822 O   0  0  0  0  0  0  0  0  0  0  0  0
   -0.6971   25.9440    2.1485 C   0  0  0  0  0  0  0  0  0  0  0  0
   -2.1456   26.2965    2.3147 O   0  0  0  0  0  0  0  0  0  0  0  0
   -3.1119   23.5787    6.2021 H   0  0  0  0  0  0  0  0  0  0  0  0
   -2.0819   23.8053    4.4750 H   0  0  0  0  0  0  0  0  0  0  0  0
   -2.6147   26.3380    3.3334 H   0  0  0  0  0  0  0  0  0  0  0  0
    2.0456   24.1116    3.3236 H   0  0  0  0  0  0  0  0  0  0  0  0
   -0.6138   26.8492    0.9553 H   0  0  0  0  0  0  0  0  0  0  0  0
   -2.7720   27.3320    1.4285 H   0  0  0  0  0  0  0  0  0  0  0  0
  1  2  2  0
  2  3  1  0
  3  4  1  0
  4  5  1  0
  5  6  1  0
  6  7  1  0
  7  8  1  0
  8  9  1  0
  9 10  1  0
  7  5  1  0
  9  5  1  0
  2 11  1  0
  4 12  1  0
  4 13  1  0
  7 14  1  0
  9 15  1  0
 10 16  1  0
M  END
