
     RDKit          2D

 41 44  0  0  0  0  0  0  0  0999 V2000
   -3.9534   21.7476    2.3584 Cl  0  0  0  0  0  0  0  0  0  0  0  0
   -2.7120   22.5874    2.2974 N   0  0  0  0  0  0  0  0  0  0  0  0
   -1.7265   22.8235    3.4033 C   0  0  0  0  0  0  0  0  0  0  0  0
   -1.4064   24.1722    2.8302 C   0  0  0  0  0  0  0  0  0  0  0  0
   -1.0863   25.5209    2.2570 C   0  0  0  0  0  0  0  0  0  0  0  0
   -0.1001   25.7566    3.3625 C   0  0  0  0  0  0  0  0  0  0  0  0
    0.2200   27.1053    2.7893 C   0  0  0  0  0  0  0  0  0  0  0  0
   -0.7662   26.8696    1.6838 C   0  0  0  0  0  0  0  0  0  0  0  0
   -2.0466   21.4748    3.9765 C   0  0  0  0  0  0  0  0  0  0  0  0
   -1.1310   21.4726    5.1645 C   0  0  0  0  0  0  0  0  0  0  0  0
   -1.0945   20.2858    6.0812 C   0  0  0  0  0  0  0  0  0  0  0  0
   -0.0677   20.7521    7.0702 C   0  0  0  0  0  0  0  0  0  0  0  0
    0.9592   21.2184    8.0593 C   0  0  0  0  0  0  0  0  0  0  0  0
    0.8214   19.9276    8.8108 C   0  0  0  0  0  0  0  0  0  0  0  0
    1.8483   20.3938    9.7999 C   0  0  0  0  0  0  0  0  0  0  0  0
    1.9860   21.6847    9.0484 C   0  0  0  0  0  0  0  0  0  0  0  0
   -2.0102   20.2880    4.8931 C   0  0  0  0  0  0  0  0  0  0  0  0
   -2.6568   23.1430    0.9052 H   0  0  0  0  0  0  0  0  0  0  0  0
   -0.7410   23.0595    4.5093 H   0  0  0  0  0  0  0  0  0  0  0  0
   -0.8513   24.2132    3.5191 H   0  0  0  0  0  0  0  0  0  0  0  0
   -2.3465   24.1028    1.6634 H   0  0  0  0  0  0  0  0  0  0  0  0
   -2.0724   25.2852    1.1515 H   0  0  0  0  0  0  0  0  0  0  0  0
    0.8860   25.9923    4.4679 H   0  0  0  0  0  0  0  0  0  0  0  0
   -0.2168   24.9831    3.7779 H   0  0  0  0  0  0  0  0  0  0  0  0
    0.5401   28.4540    2.2161 H   0  0  0  0  0  0  0  0  0  0  0  0
    1.2061   27.3410    3.8948 H   0  0  0  0  0  0  0  0  0  0  0  0
   -1.7523   26.6339    0.5784 H   0  0  0  0  0  0  0  0  0  0  0  0
   -0.4460   28.2183    1.1107 H   0  0  0  0  0  0  0  0  0  0  0  0
   -3.0834   20.8550    3.0870 H   0  0  0  0  0  0  0  0  0  0  0  0
   -0.2518   22.6572    5.4360 H   0  0  0  0  0  0  0  0  0  0  0  0
   -1.4146   18.9371    6.6543 H   0  0  0  0  0  0  0  0  0  0  0  0
   -0.2229   19.9623    7.4399 H   0  0  0  0  0  0  0  0  0  0  0  0
    0.0711   22.0424    6.3179 H   0  0  0  0  0  0  0  0  0  0  0  0
    1.0969   22.5092    7.3078 H   0  0  0  0  0  0  0  0  0  0  0  0
    0.6837   18.6367    9.5624 H   0  0  0  0  0  0  0  0  0  0  0  0
    0.2097   19.5614    8.2852 H   0  0  0  0  0  0  0  0  0  0  0  0
    2.8751   20.8601   10.7889 H   0  0  0  0  0  0  0  0  0  0  0  0
    1.7106   19.1031   10.5514 H   0  0  0  0  0  0  0  0  0  0  0  0
    2.1237   22.9755    8.2968 H   0  0  0  0  0  0  0  0  0  0  0  0
    3.0128   22.1510   10.0374 H   0  0  0  0  0  0  0  0  0  0  0  0
   -2.8893   19.1033    4.6216 H   0  0  0  0  0  0  0  0  0  0  0  0
  1  2  1  0
  2  3  1  0
  3  4  1  0
  4  5  1  0
  5  6  1  0
  6  7  1  0
  7  8  1  0
  3  9  1  0
  9 10  1  0
 10 11  1  0
 11 12  1  0
 12 13  1  0
 13 14  1  0
 14 15  1  0
 15 16  1  0
 11 17  1  0
  8  5  1  0
 17  9  1  0
 17 10  1  0
 16 13  1  0
  2 18  1  0
  3 19  1  0
  4 20  1  0
  4 21  1  0
  5 22  1  0
  6 23  1  0
  6 24  1  0
  7 25  1  0
  7 26  1  0
  8 27  1  0
  8 28  1  0
  9 29  1  0
 10 30  1  0
 11 31  1  0
 12 32  1  0
 12 33  1  0
 13 34  1  0
 14 35  1  0
 14 36  1  0
 15 37  1  0
 15 38  1  0
 16 39  1  0
 16 40  1  0
 17 41  1  0
M  END
