
     RDKit          2D

 77 85  0  0  0  0  0  0  0  0999 V2000
   12.7229  -20.7836   -2.5296 C   0  0  0  0  0  0  0  0  0  0  0  0
   13.6534  -21.0415   -3.6775 C   0  0  0  0  0  0  0  0  0  0  0  0
   14.5839  -21.2994   -4.8254 C   0  0  0  0  0  0  0  0  0  0  0  0
   15.5144  -21.5574   -5.9733 C   0  0  0  0  0  0  0  0  0  0  0  0
   15.4373  -20.2332   -6.6737 C   0  0  0  0  0  0  0  0  0  0  0  0
   16.3059  -21.3243   -7.2259 C   0  0  0  0  0  0  0  0  0  0  0  0
   16.9811  -22.6572   -7.3592 C   0  0  0  0  0  0  0  0  0  0  0  0
   17.6562  -23.9900   -7.4924 C   0  0  0  0  0  0  0  0  0  0  0  0
   18.0564  -25.4037   -7.1907 O   0  0  0  0  0  0  0  0  0  0  0  0
   17.0992  -24.6860   -6.2861 C   0  0  0  0  0  0  0  0  0  0  0  0
   16.8437  -25.7608   -5.2715 C   0  0  0  0  0  0  0  0  0  0  0  0
   16.5884  -26.8357   -4.2569 C   0  0  0  0  0  0  0  0  0  0  0  0
   16.0313  -27.5316   -3.0505 C   0  0  0  0  0  0  0  0  0  0  0  0
   15.6311  -26.1178   -3.3523 C   0  0  0  0  0  0  0  0  0  0  0  0
   17.6658  -22.1854   -8.6077 C   0  0  0  0  0  0  0  0  0  0  0  0
   18.3506  -21.7138   -9.8561 C   0  0  0  0  0  0  0  0  0  0  0  0
   19.0353  -21.2421  -11.1045 C   0  0  0  0  0  0  0  0  0  0  0  0
   19.7200  -20.7704  -12.3530 C   0  0  0  0  0  0  0  0  0  0  0  0
   19.0459  -19.4371  -12.2190 C   0  0  0  0  0  0  0  0  0  0  0  0
   19.7307  -18.9654  -13.4675 C   0  0  0  0  0  0  0  0  0  0  0  0
   20.4048  -20.2987  -13.6015 Si  0  0  0  0  0  4  0  0  0  0  0  0
   21.0789  -21.6320  -13.7354 O   0  0  0  0  0  0  0  0  0  0  0  0
   18.3403  -23.5186   -8.7414 C   0  0  0  0  0  0  0  0  0  0  0  0
   18.0828  -24.5944   -7.7284 O   0  0  0  0  0  0  0  0  0  0  0  0
   19.0148  -24.8517   -8.8750 C   0  0  0  0  0  0  0  0  0  0  0  0
   19.2724  -23.7759   -9.8881 C   0  0  0  0  0  0  0  0  0  0  0  0
   19.1972  -22.4508  -10.5872 C   0  0  0  0  0  0  0  0  0  0  0  0
   20.1293  -22.7081  -11.7339 C   0  0  0  0  0  0  0  0  0  0  0  0
   20.3869  -21.6323  -12.7470 C   0  0  0  0  0  0  0  0  0  0  0  0
   21.3450  -22.3497  -13.6509 C   0  0  0  0  0  0  0  0  0  0  0  0
   22.2138  -23.4407  -14.2031 C   0  0  0  0  0  0  0  0  0  0  0  0
   21.4202  -23.6747  -12.9519 C   0  0  0  0  0  0  0  0  0  0  0  0
   19.4548  -21.3750  -11.6003 C   0  0  0  0  0  0  0  0  0  0  0  0
   11.7924  -20.5256   -1.3818 H   0  0  0  0  0  0  0  0  0  0  0  0
   12.9146  -19.3064   -2.7062 H   0  0  0  0  0  0  0  0  0  0  0  0
   12.5312  -22.2607   -2.3530 H   0  0  0  0  0  0  0  0  0  0  0  0
   13.4102  -19.6518   -4.1869 H   0  0  0  0  0  0  0  0  0  0  0  0
   13.8965  -22.4313   -3.1680 H   0  0  0  0  0  0  0  0  0  0  0  0
   14.8264  -22.6894   -4.3164 H   0  0  0  0  0  0  0  0  0  0  0  0
   14.2297  -19.8884   -5.1906 H   0  0  0  0  0  0  0  0  0  0  0  0
   15.6912  -22.9261   -5.3855 H   0  0  0  0  0  0  0  0  0  0  0  0
   15.6927  -19.1583   -7.6883 H   0  0  0  0  0  0  0  0  0  0  0  0
   14.4982  -19.3722   -5.8819 H   0  0  0  0  0  0  0  0  0  0  0  0
   16.7633  -20.4836   -8.3809 H   0  0  0  0  0  0  0  0  0  0  0  0
   16.2963  -23.1289   -6.1107 H   0  0  0  0  0  0  0  0  0  0  0  0
   18.5563  -24.1013   -8.6872 H   0  0  0  0  0  0  0  0  0  0  0  0
   16.1566  -23.8448   -5.4774 H   0  0  0  0  0  0  0  0  0  0  0  0
   17.7699  -26.6796   -6.0117 H   0  0  0  0  0  0  0  0  0  0  0  0
   15.9556  -24.7178   -4.6605 H   0  0  0  0  0  0  0  0  0  0  0  0
   17.4570  -27.9269   -4.8092 H   0  0  0  0  0  0  0  0  0  0  0  0
   16.7065  -28.8645   -3.1838 H   0  0  0  0  0  0  0  0  0  0  0  0
   15.2398  -27.7647   -1.7978 H   0  0  0  0  0  0  0  0  0  0  0  0
   14.7006  -25.8599   -2.2044 H   0  0  0  0  0  0  0  0  0  0  0  0
   15.4378  -24.7432   -3.9205 H   0  0  0  0  0  0  0  0  0  0  0  0
   17.0798  -20.8048   -8.6271 H   0  0  0  0  0  0  0  0  0  0  0  0
   17.6761  -20.3806   -9.7224 H   0  0  0  0  0  0  0  0  0  0  0  0
   19.1707  -22.8932  -10.2880 H   0  0  0  0  0  0  0  0  0  0  0  0
   18.2140  -20.0632  -10.6735 H   0  0  0  0  0  0  0  0  0  0  0  0
   19.8565  -22.4210  -11.5356 H   0  0  0  0  0  0  0  0  0  0  0  0
   20.5398  -21.9499  -12.7852 H   0  0  0  0  0  0  0  0  0  0  0  0
   18.3719  -18.1038  -12.0850 H   0  0  0  0  0  0  0  0  0  0  0  0
   18.2184  -19.5722  -10.9752 H   0  0  0  0  0  0  0  0  0  0  0  0
   20.4155  -18.4938  -14.7159 H   0  0  0  0  0  0  0  0  0  0  0  0
   19.0566  -17.6322  -13.3334 H   0  0  0  0  0  0  0  0  0  0  0  0
   21.0895  -19.8270  -14.8499 H   0  0  0  0  0  0  0  0  0  0  0  0
   21.9617  -21.7235  -14.9448 H   0  0  0  0  0  0  0  0  0  0  0  0
   19.6893  -26.1848   -9.0088 H   0  0  0  0  0  0  0  0  0  0  0  0
   20.2306  -24.4933  -10.7921 H   0  0  0  0  0  0  0  0  0  0  0  0
   18.2899  -21.4598   -9.9204 H   0  0  0  0  0  0  0  0  0  0  0  0
   20.7150  -24.0889  -11.7147 H   0  0  0  0  0  0  0  0  0  0  0  0
   20.5461  -20.4664  -13.6773 H   0  0  0  0  0  0  0  0  0  0  0  0
   21.7138  -21.3938  -14.7465 H   0  0  0  0  0  0  0  0  0  0  0  0
   22.7731  -22.7439  -15.4079 H   0  0  0  0  0  0  0  0  0  0  0  0
   22.8883  -24.7739  -14.3368 H   0  0  0  0  0  0  0  0  0  0  0  0
   21.8191  -25.0891  -12.6510 H   0  0  0  0  0  0  0  0  0  0  0  0
   20.5244  -23.5889  -11.7518 H   0  0  0  0  0  0  0  0  0  0  0  0
   18.7802  -20.0419  -11.4665 H   0  0  0  0  0  0  0  0  0  0  0  0
  1  2  1  0
  2  3  1  0
  3  4  1  0
  4  5  1  0
  5  6  1  0
  6  7  1  0
  7  8  1  0
  8  9  1  0
  9 10  1  0
 10 11  1  0
 11 12  1  0
 12 13  1  0
 13 14  1  0
  7 15  1  0
 15 16  1  0
 16 17  1  0
 17 18  1  0
 18 19  1  0
 19 20  1  0
 20 21  1  0
 21 22  1  0
 15 23  1  0
 23 24  1  0
 24 25  1  0
 25 26  1  0
 26 27  1  0
 27 28  1  0
 28 29  1  0
 29 30  1  0
 30 31  1  0
 31 32  1  0
 29 33  1  0
  6  4  1  0
 10  8  1  0
 14 12  1  0
 21 18  1  0
 25 23  1  0
 33 27  1  0
 26 23  1  0
 33 28  1  0
 32 30  1  0
  1 34  1  0
  1 35  1  0
  1 36  1  0
  2 37  1  0
  2 38  1  0
  3 39  1  0
  3 40  1  0
  4 41  1  0
  5 42  1  0
  5 43  1  0
  6 44  1  0
  7 45  1  0
  8 46  1  0
 10 47  1  0
 11 48  1  0
 11 49  1  0
 12 50  1  0
 13 51  1  0
 13 52  1  0
 14 53  1  0
 14 54  1  0
 15 55  1  0
 16 56  1  0
 16 57  1  0
 17 58  1  0
 17 59  1  0
 18 60  1  0
 19 61  1  0
 19 62  1  0
 20 63  1  0
 20 64  1  0
 21 65  1  0
 22 66  1  0
 25 67  1  0
 26 68  1  0
 27 69  1  0
 28 70  1  0
 29 71  1  0
 30 72  1  0
 31 73  1  0
 31 74  1  0
 32 75  1  0
 32 76  1  0
 33 77  1  0
M  END
