
     RDKit          2D

 27 28  0  0  0  0  0  0  0  0999 V2000
   -3.2983   25.6319    7.3605 C   0  0  0  0  0  0  0  0  0  0  0  0
   -4.2571   26.7828    7.4380 C   0  0  0  0  0  0  0  0  0  0  0  0
   -5.6119   27.3236    7.7872 N   0  0  0  0  0  0  0  0  0  0  0  0
   -6.2666   28.6713    7.7162 C   0  0  0  0  0  0  0  0  0  0  0  0
   -7.6825   28.6486    8.2108 O   0  0  0  0  0  0  0  0  0  0  0  0
   -5.8375   30.0365    7.2665 N   0  0  0  0  0  0  0  0  0  0  0  0
   -6.4921   31.3843    7.1954 C   0  0  0  0  0  0  0  0  0  0  0  0
   -5.2307   31.9672    6.6306 C   0  0  0  0  0  0  0  0  0  0  0  0
   -4.5760   30.6194    6.7016 C   0  0  0  0  0  0  0  0  0  0  0  0
   -3.2212   30.0786    6.3525 C   0  0  0  0  0  0  0  0  0  0  0  0
   -2.5667   28.7309    6.4235 N   0  0  0  0  0  0  0  0  0  0  0  0
   -2.9957   27.3657    6.8732 C   0  0  0  0  0  0  0  0  0  0  0  0
   -1.9082   26.3436    6.7227 N   0  0  0  0  0  0  0  0  0  0  0  0
   -2.3395   24.4809    7.2829 H   0  0  0  0  0  0  0  0  0  0  0  0
   -4.3927   24.6924    7.7725 H   0  0  0  0  0  0  0  0  0  0  0  0
   -2.6107   25.9683    7.1380 H   0  0  0  0  0  0  0  0  0  0  0  0
   -5.0222   25.6041    7.9628 H   0  0  0  0  0  0  0  0  0  0  0  0
   -6.5268   26.2694    8.3363 H   0  0  0  0  0  0  0  0  0  0  0  0
   -7.1467   32.7321    7.1244 H   0  0  0  0  0  0  0  0  0  0  0  0
   -7.7535   30.8013    7.7603 H   0  0  0  0  0  0  0  0  0  0  0  0
   -3.9693   32.5501    6.0657 H   0  0  0  0  0  0  0  0  0  0  0  0
   -5.8854   33.3149    6.5595 H   0  0  0  0  0  0  0  0  0  0  0  0
   -3.8006   31.7905    6.1750 H   0  0  0  0  0  0  0  0  0  0  0  0
   -2.9849   31.5058    5.9558 H   0  0  0  0  0  0  0  0  0  0  0  0
   -1.8334   30.2928    5.8253 H   0  0  0  0  0  0  0  0  0  0  0  0
   -1.1507   28.7537    5.9289 H   0  0  0  0  0  0  0  0  0  0  0  0
   -0.5721   26.7456    6.1719 H   0  0  0  0  0  0  0  0  0  0  0  0
  1  2  1  0
  2  3  1  0
  3  4  1  0
  4  5  2  0
  4  6  1  0
  6  7  1  0
  7  8  1  0
  8  9  1  0
  9 10  1  0
 10 11  1  0
 11 12  1  0
 12 13  2  3
 12  2  1  0
  9  6  1  0
  1 14  1  0
  1 15  1  0
  1 16  1  0
  2 17  1  0
  3 18  1  0
  7 19  1  0
  7 20  1  0
  8 21  1  0
  8 22  1  0
  9 23  1  0
 10 24  1  0
 10 25  1  0
 11 26  1  0
 13 27  1  0
M  END
