
     RDKit          2D

 33 36  0  0  0  0  0  0  0  0999 V2000
   -0.1467   23.4157    5.8574 C   0  0  0  0  0  0  0  0  0  0  0  0
    0.0303   24.6342    5.0007 C   0  0  0  0  0  0  0  0  0  0  0  0
    1.4095   24.0455    5.0325 C   0  0  0  0  0  0  0  0  0  0  0  0
    2.6574   24.5505    4.3709 C   0  0  0  0  0  0  0  0  0  0  0  0
    2.8343   25.7690    3.5142 C   0  0  0  0  0  0  0  0  0  0  0  0
    1.8069   26.7834    3.1074 C   0  0  0  0  0  0  0  0  0  0  0  0
    0.3490   26.8299    3.4569 C   0  0  0  0  0  0  0  0  0  0  0  0
   -0.4417   25.8734    4.2995 C   0  0  0  0  0  0  0  0  0  0  0  0
   -0.5111   27.9447    2.9397 C   0  0  0  0  0  0  0  0  0  0  0  0
   -1.9691   27.9912    3.2892 C   0  0  0  0  0  0  0  0  0  0  0  0
   -3.4270   28.0376    3.6387 O   0  0  0  0  0  0  0  0  0  0  0  0
    0.0868   29.0131    2.0731 C   0  0  0  0  0  0  0  0  0  0  0  0
   -1.1274   29.8589    1.8272 O   0  0  0  0  0  0  0  0  0  0  0  0
    1.1064   29.7876    1.2918 O   0  0  0  0  0  0  0  0  0  0  0  0
    0.9469   27.8982    2.5903 C   0  0  0  0  0  0  0  0  0  0  0  0
   -0.3235   22.1973    6.7141 H   0  0  0  0  0  0  0  0  0  0  0  0
   -1.5982   23.7502    6.0334 H   0  0  0  0  0  0  0  0  0  0  0  0
    0.6076   23.1604    5.8200 H   0  0  0  0  0  0  0  0  0  0  0  0
   -1.3984   24.5267    5.4450 H   0  0  0  0  0  0  0  0  0  0  0  0
    2.3018   22.9472    5.5303 H   0  0  0  0  0  0  0  0  0  0  0  0
    1.0723   23.4877    5.4915 H   0  0  0  0  0  0  0  0  0  0  0  0
    4.1229   24.3507    4.1214 H   0  0  0  0  0  0  0  0  0  0  0  0
    3.2951   23.3492    5.0037 H   0  0  0  0  0  0  0  0  0  0  0  0
    3.6250   26.7254    2.6717 H   0  0  0  0  0  0  0  0  0  0  0  0
    4.2638   25.3206    3.4395 H   0  0  0  0  0  0  0  0  0  0  0  0
    2.9264   27.4551    2.3686 H   0  0  0  0  0  0  0  0  0  0  0  0
   -1.7741   25.5130    4.8869 H   0  0  0  0  0  0  0  0  0  0  0  0
   -1.5889   26.7889    3.9898 H   0  0  0  0  0  0  0  0  0  0  0  0
   -2.2553   28.7035    2.0006 H   0  0  0  0  0  0  0  0  0  0  0  0
   -1.8627   27.2897    4.6109 H   0  0  0  0  0  0  0  0  0  0  0  0
   -4.2872   29.1523    3.1213 H   0  0  0  0  0  0  0  0  0  0  0  0
   -1.0232   31.0921    0.9797 H   0  0  0  0  0  0  0  0  0  0  0  0
    0.7042   31.0370    0.5656 H   0  0  0  0  0  0  0  0  0  0  0  0
  1  2  1  0
  2  3  1  0
  3  4  1  0
  4  5  1  0
  5  6  1  0
  6  7  1  0
  7  8  1  0
  7  9  1  0
  9 10  1  0
 10 11  1  0
  9 12  1  0
 12 13  1  0
 12 14  1  0
 12 15  1  0
  8  2  1  0
 15  9  1  0
 15  6  1  0
 15  7  1  0
  1 16  1  0
  1 17  1  0
  1 18  1  0
  2 19  1  0
  3 20  1  0
  3 21  1  0
  4 22  1  0
  4 23  1  0
  5 24  1  0
  5 25  1  0
  6 26  1  0
  8 27  1  0
  8 28  1  0
 10 29  1  0
 10 30  1  0
 11 31  1  0
 13 32  1  0
 14 33  1  0
M  END
