
     RDKit          2D

109116  0  0  0  0  0  0  0  0999 V2000
   17.5920  -21.6113  -18.9505 C   0  0  0  0  0  0  0  0  0  0  0  0
   18.7073  -21.2440  -18.0170 C   0  0  0  0  0  0  0  0  0  0  0  0
   18.4422  -21.1136  -16.5464 C   0  0  0  0  0  0  0  0  0  0  0  0
   18.1771  -20.9831  -15.0758 C   0  0  0  0  0  0  0  0  0  0  0  0
   17.9121  -20.8527  -13.6052 C   0  0  0  0  0  0  0  0  0  0  0  0
   17.6470  -20.7222  -12.1345 C   0  0  0  0  0  0  0  0  0  0  0  0
   17.3819  -20.5918  -10.6639 C   0  0  0  0  0  0  0  0  0  0  0  0
   17.6509  -22.0006  -10.2248 C   0  0  0  0  0  0  0  0  0  0  0  0
   17.0208  -19.1376  -10.5923 C   0  0  0  0  0  0  0  0  0  0  0  0
   17.0234  -19.9721   -9.3458 C   0  0  0  0  0  0  0  0  0  0  0  0
   16.6147  -18.9378   -8.3392 C   0  0  0  0  0  0  0  0  0  0  0  0
   16.2060  -17.9035   -7.3326 N   0  0  0  0  0  0  0  0  0  0  0  0
   15.8147  -16.4930   -7.0050 C   0  0  0  0  0  0  0  0  0  0  0  0
   15.4982  -16.1122   -5.5891 N   0  0  0  0  0  0  0  0  0  0  0  0
   15.8894  -17.5226   -5.9167 C   0  0  0  0  0  0  0  0  0  0  0  0
   15.9642  -18.5523   -4.8284 C   0  0  0  0  0  0  0  0  0  0  0  0
   15.6877  -18.1623   -3.4067 N   0  0  0  0  0  0  0  0  0  0  0  0
   17.1679  -21.1657   -8.4489 C   0  0  0  0  0  0  0  0  0  0  0  0
   16.8094  -20.5459   -7.1309 C   0  0  0  0  0  0  0  0  0  0  0  0
   16.8120  -21.3803   -5.8843 C   0  0  0  0  0  0  0  0  0  0  0  0
   16.9565  -22.5739   -4.9874 C   0  0  0  0  0  0  0  0  0  0  0  0
   16.5429  -21.4538   -4.0795 C   0  0  0  0  0  0  0  0  0  0  0  0
   16.2778  -21.3234   -2.6089 C   0  0  0  0  0  0  0  0  0  0  0  0
   16.3166  -22.2590   -1.4370 C   0  0  0  0  0  0  0  0  0  0  0  0
   16.6365  -23.7126   -1.2504 C   0  0  0  0  0  0  0  0  0  0  0  0
   17.0502  -24.8326   -2.1584 C   0  0  0  0  0  0  0  0  0  0  0  0
   17.0346  -25.6139   -0.8780 O   0  0  0  0  0  0  0  0  0  0  0  0
   17.3864  -27.0721   -0.8850 C   0  0  0  0  0  0  0  0  0  0  0  0
   17.3152  -24.9630   -3.6290 C   0  0  0  0  0  0  0  0  0  0  0  0
   17.2764  -24.0274   -4.8008 C   0  0  0  0  0  0  0  0  0  0  0  0
   17.4598  -26.1566   -2.7321 C   0  0  0  0  0  0  0  0  0  0  0  0
   17.7797  -27.6102   -2.5455 C   0  0  0  0  0  0  0  0  0  0  0  0
   18.0996  -29.0638   -2.3588 C   0  0  0  0  0  0  0  0  0  0  0  0
   18.4195  -30.5173   -2.1723 C   0  0  0  0  0  0  0  0  0  0  0  0
   17.1705  -22.0001   -7.2025 C   0  0  0  0  0  0  0  0  0  0  0  0
   20.0876  -21.0072  -18.5542 C   0  0  0  0  0  0  0  0  0  0  0  0
   21.4679  -20.7704  -19.0914 C   0  0  0  0  0  0  0  0  0  0  0  0
   19.7660  -21.8503  -19.7525 C   0  0  0  0  0  0  0  0  0  0  0  0
   19.4443  -22.6933  -20.9507 C   0  0  0  0  0  0  0  0  0  0  0  0
   19.1227  -23.5364  -22.1489 C   0  0  0  0  0  0  0  0  0  0  0  0
   18.8010  -24.3794  -23.3472 C   0  0  0  0  0  0  0  0  0  0  0  0
   17.6733  -23.5326  -21.7625 C   0  0  0  0  0  0  0  0  0  0  0  0
   16.2239  -23.5289  -21.3761 C   0  0  0  0  0  0  0  0  0  0  0  0
   14.7746  -23.5251  -20.9897 C   0  0  0  0  0  0  0  0  0  0  0  0
   17.6796  -21.7834  -20.4380 H   0  0  0  0  0  0  0  0  0  0  0  0
   16.2117  -21.8482  -18.4133 H   0  0  0  0  0  0  0  0  0  0  0  0
   18.7628  -22.5669  -16.3597 H   0  0  0  0  0  0  0  0  0  0  0  0
   18.1215  -19.6602  -16.7331 H   0  0  0  0  0  0  0  0  0  0  0  0
   17.2874  -19.8049  -15.3406 H   0  0  0  0  0  0  0  0  0  0  0  0
   19.0668  -22.1613  -14.8109 H   0  0  0  0  0  0  0  0  0  0  0  0
   18.2473  -22.3025  -13.4162 H   0  0  0  0  0  0  0  0  0  0  0  0
   17.5768  -19.4029  -13.7942 H   0  0  0  0  0  0  0  0  0  0  0  0
   17.3907  -19.4380  -12.4625 H   0  0  0  0  0  0  0  0  0  0  0  0
   17.9300  -21.9038  -12.1298 H   0  0  0  0  0  0  0  0  0  0  0  0
   17.9200  -23.4095   -9.7857 H   0  0  0  0  0  0  0  0  0  0  0  0
   17.9316  -22.4460  -11.3199 H   0  0  0  0  0  0  0  0  0  0  0  0
   17.5454  -22.0799   -9.4386 H   0  0  0  0  0  0  0  0  0  0  0  0
   16.6626  -17.8875  -10.2298 H   0  0  0  0  0  0  0  0  0  0  0  0
   17.1026  -18.6483  -11.8478 H   0  0  0  0  0  0  0  0  0  0  0  0
   15.8695  -18.1818   -9.1733 H   0  0  0  0  0  0  0  0  0  0  0  0
   17.2765  -19.3855   -7.0697 H   0  0  0  0  0  0  0  0  0  0  0  0
   15.7400  -15.4634   -8.0933 H   0  0  0  0  0  0  0  0  0  0  0  0
   15.0894  -15.0779   -4.5824 H   0  0  0  0  0  0  0  0  0  0  0  0
   16.2986  -20.0063   -4.9829 H   0  0  0  0  0  0  0  0  0  0  0  0
   15.7624  -19.1919   -2.3184 H   0  0  0  0  0  0  0  0  0  0  0  0
   17.3883  -21.7779   -8.9094 H   0  0  0  0  0  0  0  0  0  0  0  0
   16.4484  -19.0918   -7.0592 H   0  0  0  0  0  0  0  0  0  0  0  0
   16.4033  -20.3460   -4.8777 H   0  0  0  0  0  0  0  0  0  0  0  0
   17.2954  -23.0761   -6.3596 H   0  0  0  0  0  0  0  0  0  0  0  0
   16.1892  -19.9963   -4.0596 H   0  0  0  0  0  0  0  0  0  0  0  0
   16.4611  -20.4062   -5.1499 H   0  0  0  0  0  0  0  0  0  0  0  0
   15.8736  -20.3444   -1.5467 H   0  0  0  0  0  0  0  0  0  0  0  0
   15.9979  -19.9022   -2.9983 H   0  0  0  0  0  0  0  0  0  0  0  0
   16.0986  -22.3320    0.0453 H   0  0  0  0  0  0  0  0  0  0  0  0
   15.9016  -21.0196   -0.7009 H   0  0  0  0  0  0  0  0  0  0  0  0
   16.7811  -24.9062   -0.3535 H   0  0  0  0  0  0  0  0  0  0  0  0
   16.3295  -23.3811    0.1799 H   0  0  0  0  0  0  0  0  0  0  0  0
   17.7086  -28.5268   -0.7112 H   0  0  0  0  0  0  0  0  0  0  0  0
   17.1654  -27.1325    0.5974 H   0  0  0  0  0  0  0  0  0  0  0  0
   17.6860  -27.3664   -2.3250 H   0  0  0  0  0  0  0  0  0  0  0  0
   17.7203  -25.9514   -4.6821 H   0  0  0  0  0  0  0  0  0  0  0  0
   17.6438  -24.7042   -6.0881 H   0  0  0  0  0  0  0  0  0  0  0  0
   18.0680  -27.7350   -4.0123 H   0  0  0  0  0  0  0  0  0  0  0  0
   17.5774  -27.8408   -1.0772 H   0  0  0  0  0  0  0  0  0  0  0  0
   18.3973  -29.1864   -3.8239 H   0  0  0  0  0  0  0  0  0  0  0  0
   17.8431  -29.1193   -0.8820 H   0  0  0  0  0  0  0  0  0  0  0  0
   18.7394  -31.9709   -1.9857 H   0  0  0  0  0  0  0  0  0  0  0  0
   18.1298  -30.3929   -0.7057 H   0  0  0  0  0  0  0  0  0  0  0  0
   18.7092  -30.6418   -3.6387 H   0  0  0  0  0  0  0  0  0  0  0  0
   17.5316  -23.4542   -7.2740 H   0  0  0  0  0  0  0  0  0  0  0  0
   20.4092  -20.1641  -17.3560 H   0  0  0  0  0  0  0  0  0  0  0  0
   22.8483  -20.5335  -19.6285 H   0  0  0  0  0  0  0  0  0  0  0  0
   21.9091  -20.2833  -17.7430 H   0  0  0  0  0  0  0  0  0  0  0  0
   21.1984  -21.2249  -20.4952 H   0  0  0  0  0  0  0  0  0  0  0  0
   21.1094  -21.7504  -20.4121 H   0  0  0  0  0  0  0  0  0  0  0  0
   18.3365  -22.2522  -19.5402 H   0  0  0  0  0  0  0  0  0  0  0  0
   18.0303  -22.3631  -20.5745 H   0  0  0  0  0  0  0  0  0  0  0  0
   20.8583  -23.0234  -21.3268 H   0  0  0  0  0  0  0  0  0  0  0  0
   20.5720  -23.5401  -22.5354 H   0  0  0  0  0  0  0  0  0  0  0  0
   18.4794  -25.2225  -24.5454 H   0  0  0  0  0  0  0  0  0  0  0  0
   20.0143  -23.8450  -24.0489 H   0  0  0  0  0  0  0  0  0  0  0  0
   17.5576  -25.0127  -22.7967 H   0  0  0  0  0  0  0  0  0  0  0  0
   17.8724  -23.2215  -20.3087 H   0  0  0  0  0  0  0  0  0  0  0  0
   17.1207  -23.8429  -23.1221 H   0  0  0  0  0  0  0  0  0  0  0  0
   16.5990  -23.8770  -19.9661 H   0  0  0  0  0  0  0  0  0  0  0  0
   15.8489  -23.1808  -22.7861 H   0  0  0  0  0  0  0  0  0  0  0  0
   13.3252  -23.5214  -20.6033 H   0  0  0  0  0  0  0  0  0  0  0  0
   14.3943  -23.8060  -22.4132 H   0  0  0  0  0  0  0  0  0  0  0  0
   15.1548  -23.2443  -19.5661 H   0  0  0  0  0  0  0  0  0  0  0  0
  1  2  2  3
  2  3  1  0
  3  4  1  0
  4  5  1  0
  5  6  1  0
  6  7  1  0
  7  8  1  0
  7  9  1  0
  9 10  1  0
 10 11  1  0
 11 12  1  0
 12 13  1  0
 13 14  1  0
 14 15  1  0
 15 16  1  0
 16 17  2  3
 10 18  1  0
 18 19  1  0
 19 20  1  0
 20 21  1  0
 21 22  1  0
 22 23  1  0
 23 24  1  0
 24 25  1  0
 25 26  1  0
 26 27  1  0
 27 28  1  0
 26 29  1  0
 29 30  1  0
 30 31  1  0
 31 32  1  0
 32 33  1  0
 33 34  1  0
 20 35  1  0
  2 36  1  0
 36 37  1  0
 36 38  1  0
 38 39  1  0
 39 40  1  0
 40 41  1  0
 40 42  1  0
 42 43  1  0
 43 44  1  0
 10  7  1  0
 15 12  1  0
 35 18  1  0
 15 13  1  0
 35 19  1  0
 30 21  1  0
 31 26  1  0
 31 29  1  0
  1 45  1  0
  1 46  1  0
  3 47  1  0
  3 48  1  0
  4 49  1  0
  4 50  1  0
  5 51  1  0
  5 52  1  0
  6 53  1  0
  6 54  1  0
  8 55  1  0
  8 56  1  0
  8 57  1  0
  9 58  1  0
  9 59  1  0
 11 60  1  0
 11 61  1  0
 13 62  1  0
 14 63  1  0
 16 64  1  0
 17 65  1  0
 18 66  1  0
 19 67  1  0
 20 68  1  0
 21 69  1  0
 22 70  1  0
 22 71  1  0
 23 72  1  0
 23 73  1  0
 24 74  1  0
 24 75  1  0
 25 76  1  0
 25 77  1  0
 28 78  1  0
 28 79  1  0
 28 80  1  0
 29 81  1  0
 30 82  1  0
 32 83  1  0
 32 84  1  0
 33 85  1  0
 33 86  1  0
 34 87  1  0
 34 88  1  0
 34 89  1  0
 35 90  1  0
 36 91  1  0
 37 92  1  0
 37 93  1  0
 37 94  1  0
 38 95  1  0
 38 96  1  0
 39 97  1  0
 39 98  1  0
 40 99  1  0
 41100  1  0
 41101  1  0
 41102  1  0
 42103  1  0
 42104  1  0
 43105  1  0
 43106  1  0
 44107  1  0
 44108  1  0
 44109  1  0
M  END
