
     RDKit          2D

 26 29  0  0  0  0  0  0  0  0999 V2000
   -2.7096   27.3623    4.6680 C   0  0  0  0  0  0  0  0  0  0  0  0
   -1.3824   27.3266    3.9701 N   0  0  0  0  0  0  0  0  0  0  0  0
   -0.1790   26.7741    4.6748 C   0  0  0  0  0  0  0  0  0  0  0  0
    1.0243   26.2216    5.3796 C   0  0  0  0  0  0  0  0  0  0  0  0
    2.2277   25.6691    6.0844 C   0  0  0  0  0  0  0  0  0  0  0  0
    2.7480   26.9190    6.7301 C   0  0  0  0  0  0  0  0  0  0  0  0
    3.4666   25.6174    6.9284 C   0  0  0  0  0  0  0  0  0  0  0  0
    3.7944   24.1576    6.8205 C   0  0  0  0  0  0  0  0  0  0  0  0
    4.1222   22.6979    6.7127 C   0  0  0  0  0  0  0  0  0  0  0  0
    2.9146   23.2490    6.0141 C   0  0  0  0  0  0  0  0  0  0  0  0
    5.0020   23.6065    7.5191 C   0  0  0  0  0  0  0  0  0  0  0  0
   -4.0369   27.3980    5.3659 H   0  0  0  0  0  0  0  0  0  0  0  0
   -3.4085   27.2785    3.3433 H   0  0  0  0  0  0  0  0  0  0  0  0
   -2.0109   27.4461    5.9926 H   0  0  0  0  0  0  0  0  0  0  0  0
   -1.2584   27.8434    2.5673 H   0  0  0  0  0  0  0  0  0  0  0  0
   -0.2624   27.8803    5.6844 H   0  0  0  0  0  0  0  0  0  0  0  0
   -0.0957   25.6678    3.6653 H   0  0  0  0  0  0  0  0  0  0  0  0
    0.9526   24.9854    4.5330 H   0  0  0  0  0  0  0  0  0  0  0  0
    0.9563   27.3865    6.0586 H   0  0  0  0  0  0  0  0  0  0  0  0
    2.1252   24.2274    5.6834 H   0  0  0  0  0  0  0  0  0  0  0  0
    3.6235   27.8263    7.5427 H   0  0  0  0  0  0  0  0  0  0  0  0
    1.9122   27.9205    6.3821 H   0  0  0  0  0  0  0  0  0  0  0  0
    4.5916   26.0725    7.8099 H   0  0  0  0  0  0  0  0  0  0  0  0
    4.4501   21.2381    6.6048 H   0  0  0  0  0  0  0  0  0  0  0  0
    1.7095   23.0425    5.1452 H   0  0  0  0  0  0  0  0  0  0  0  0
    6.2071   23.8130    8.3880 H   0  0  0  0  0  0  0  0  0  0  0  0
  1  2  1  0
  2  3  1  0
  3  4  1  0
  4  5  1  0
  5  6  1  0
  6  7  1  0
  7  8  1  0
  8  9  1  0
  9 10  1  0
 10 11  1  0
  7  5  1  0
 10  8  1  0
 11  8  1  0
 11  9  1  0
  1 12  1  0
  1 13  1  0
  1 14  1  0
  2 15  1  0
  3 16  1  0
  3 17  1  0
  4 18  1  0
  4 19  1  0
  5 20  1  0
  6 21  1  0
  6 22  1  0
  7 23  1  0
  9 24  1  0
 10 25  1  0
 11 26  1  0
M  END
