
     RDKit          2D

 25 26  0  0  0  0  0  0  0  0999 V2000
   -3.3129   22.0662    3.0053 C   0  0  0  0  0  0  0  0  0  0  0  0
   -1.8629   22.1161    2.6248 C   0  0  0  0  0  0  0  0  0  0  0  0
   -1.0249   23.2969    3.0165 C   0  0  0  0  0  0  0  0  0  0  0  0
    0.0021   22.4772    2.2930 C   0  0  0  0  0  0  0  0  0  0  0  0
    1.3202   22.0676    1.7055 C   0  0  0  0  0  0  0  0  0  0  0  0
    1.1968   23.3733    2.4335 C   0  0  0  0  0  0  0  0  0  0  0  0
   -1.6369   24.4278    3.7888 C   0  0  0  0  0  0  0  0  0  0  0  0
   -3.0869   24.3779    4.1693 C   0  0  0  0  0  0  0  0  0  0  0  0
   -3.9249   23.1971    3.7776 Si  0  0  0  0  0  4  0  0  0  0  0  0
   -4.7202   21.5628    3.1330 H   0  0  0  0  0  0  0  0  0  0  0  0
   -3.1896   20.7604    2.2774 H   0  0  0  0  0  0  0  0  0  0  0  0
   -2.2431   20.7930    2.0290 H   0  0  0  0  0  0  0  0  0  0  0  0
   -1.2077   21.8177    2.2824 H   0  0  0  0  0  0  0  0  0  0  0  0
    0.0595   24.3071    3.2485 H   0  0  0  0  0  0  0  0  0  0  0  0
   -0.3628   21.8139    2.0433 H   0  0  0  0  0  0  0  0  0  0  0  0
    0.9399   20.7446    1.1098 H   0  0  0  0  0  0  0  0  0  0  0  0
    2.7702   22.1175    1.3250 H   0  0  0  0  0  0  0  0  0  0  0  0
    2.6040   23.8767    2.3057 H   0  0  0  0  0  0  0  0  0  0  0  0
    0.7503   24.5824    3.2008 H   0  0  0  0  0  0  0  0  0  0  0  0
   -0.2296   24.9312    3.6611 H   0  0  0  0  0  0  0  0  0  0  0  0
   -1.7603   25.7335    4.5168 H   0  0  0  0  0  0  0  0  0  0  0  0
   -2.7068   25.7009    4.7651 H   0  0  0  0  0  0  0  0  0  0  0  0
   -4.4050   24.7874    4.7568 H   0  0  0  0  0  0  0  0  0  0  0  0
   -4.9519   24.0167    4.5011 H   0  0  0  0  0  0  0  0  0  0  0  0
   -5.1196   22.3010    3.6371 H   0  0  0  0  0  0  0  0  0  0  0  0
  1  2  1  0
  2  3  1  0
  3  4  1  0
  4  5  1  0
  5  6  1  0
  3  7  1  0
  7  8  1  0
  8  9  1  0
  9  1  1  0
  6  4  1  0
  1 10  1  0
  1 11  1  0
  2 12  1  0
  2 13  1  0
  3 14  1  0
  4 15  1  0
  5 16  1  0
  5 17  1  0
  6 18  1  0
  6 19  1  0
  7 20  1  0
  7 21  1  0
  8 22  1  0
  8 23  1  0
  9 24  1  0
  9 25  1  0
M  END
