
     RDKit          2D

 47 55  0  0  0  0  0  0  0  0999 V2000
    1.3217   29.2987    3.9083 F   0  0  0  0  0  0  0  0  0  0  0  0
    0.1034   28.4536    4.1354 C   0  0  0  0  0  0  0  0  0  0  0  0
   -1.1148   27.6085    4.3624 C   0  0  0  0  0  0  0  0  0  0  0  0
   -0.6193   26.2919    3.8414 F   0  0  0  0  0  0  0  0  0  0  0  0
   -2.0334   28.6314    4.9622 C   0  0  0  0  0  0  0  0  0  0  0  0
   -3.4238   28.2434    5.3701 C   0  0  0  0  0  0  0  0  0  0  0  0
   -3.8956   26.8325    5.1782 C   0  0  0  0  0  0  0  0  0  0  0  0
   -5.2903   26.9485    5.7179 C   0  0  0  0  0  0  0  0  0  0  0  0
   -6.6850   27.0645    6.2576 C   0  0  0  0  0  0  0  0  0  0  0  0
   -6.6977   28.5157    6.6369 C   0  0  0  0  0  0  0  0  0  0  0  0
   -7.9159   27.6705    6.8639 C   0  0  0  0  0  0  0  0  0  0  0  0
   -8.6339   28.8583    7.4329 C   0  0  0  0  0  0  0  0  0  0  0  0
   -8.6466   30.3094    7.8122 C   0  0  0  0  0  0  0  0  0  0  0  0
  -10.0413   30.4255    8.3519 C   0  0  0  0  0  0  0  0  0  0  0  0
  -11.2722   31.0315    8.9582 C   0  0  0  0  0  0  0  0  0  0  0  0
  -10.0540   31.8767    8.7312 C   0  0  0  0  0  0  0  0  0  0  0  0
   -7.4156   29.7035    7.2059 C   0  0  0  0  0  0  0  0  0  0  0  0
   -3.8829   25.3813    4.7989 C   0  0  0  0  0  0  0  0  0  0  0  0
   -3.3874   24.0649    4.2780 C   0  0  0  0  0  0  0  0  0  0  0  0
   -2.4881   25.2652    4.2592 C   0  0  0  0  0  0  0  0  0  0  0  0
   -1.0934   25.1493    3.7196 C   0  0  0  0  0  0  0  0  0  0  0  0
   -1.5889   26.4657    4.2406 C   0  0  0  0  0  0  0  0  0  0  0  0
   -2.5052   27.2204    4.7703 C   0  0  0  0  0  0  0  0  0  0  0  0
    0.4786   27.5977    2.9620 H   0  0  0  0  0  0  0  0  0  0  0  0
   -0.2718   29.3095    5.3087 H   0  0  0  0  0  0  0  0  0  0  0  0
   -1.5617   30.0423    5.1541 H   0  0  0  0  0  0  0  0  0  0  0  0
   -4.3424   29.2663    5.9699 H   0  0  0  0  0  0  0  0  0  0  0  0
   -5.6505   25.6625    5.5207 H   0  0  0  0  0  0  0  0  0  0  0  0
   -4.8901   28.3774    5.9370 H   0  0  0  0  0  0  0  0  0  0  0  0
   -7.1568   25.6536    6.0657 H   0  0  0  0  0  0  0  0  0  0  0  0
   -5.3914   29.1874    6.3329 H   0  0  0  0  0  0  0  0  0  0  0  0
   -8.9069   26.5468    6.9359 H   0  0  0  0  0  0  0  0  0  0  0  0
   -9.9965   28.3493    7.7995 H   0  0  0  0  0  0  0  0  0  0  0  0
   -8.0158   31.6652    7.9318 H   0  0  0  0  0  0  0  0  0  0  0  0
  -10.5130   29.0146    8.1600 H   0  0  0  0  0  0  0  0  0  0  0  0
  -12.1715   29.8311    8.9769 H   0  0  0  0  0  0  0  0  0  0  0  0
  -12.1908   32.0544    9.5580 H   0  0  0  0  0  0  0  0  0  0  0  0
  -10.5494   33.1932    9.2521 H   0  0  0  0  0  0  0  0  0  0  0  0
   -8.7054   32.4331    8.3820 H   0  0  0  0  0  0  0  0  0  0  0  0
   -6.4247   30.8272    7.1339 H   0  0  0  0  0  0  0  0  0  0  0  0
   -5.0966   24.8806    5.1132 H   0  0  0  0  0  0  0  0  0  0  0  0
   -4.6056   23.2196    4.5049 H   0  0  0  0  0  0  0  0  0  0  0  0
   -2.4688   23.0419    3.6782 H   0  0  0  0  0  0  0  0  0  0  0  0
   -1.0808   23.6980    3.3403 H   0  0  0  0  0  0  0  0  0  0  0  0
    0.2969   25.5372    3.3117 H   0  0  0  0  0  0  0  0  0  0  0  0
   -0.3707   27.3108    4.0136 H   0  0  0  0  0  0  0  0  0  0  0  0
   -1.9244   27.1267    4.5338 H   0  0  0  0  0  0  0  0  0  0  0  0
  1  2  1  0
  2  3  1  0
  3  4  1  0
  3  5  1  0
  5  6  1  0
  6  7  1  0
  7  8  1  0
  8  9  1  0
  9 10  1  0
 10 11  1  0
 11 12  1  0
 12 13  1  0
 13 14  1  0
 14 15  1  0
 15 16  1  0
 13 17  1  0
  7 18  1  0
 18 19  1  0
 19 20  1  0
 20 21  1  0
 21 22  1  0
  7 23  1  0
 23  3  1  0
 23  5  1  0
 23  6  1  0
 11  9  1  0
 17 12  1  0
 20 18  1  0
 17 10  1  0
 22 20  1  0
 16 14  1  0
  2 24  1  0
  2 25  1  0
  5 26  1  0
  6 27  1  0
  8 28  1  0
  8 29  1  0
  9 30  1  0
 10 31  1  0
 11 32  1  0
 12 33  1  0
 13 34  1  0
 14 35  1  0
 15 36  1  0
 15 37  1  0
 16 38  1  0
 16 39  1  0
 17 40  1  0
 18 41  1  0
 19 42  1  0
 19 43  1  0
 21 44  1  0
 21 45  1  0
 22 46  1  0
 22 47  1  0
M  END
