
     RDKit          2D

 50 52  0  0  0  0  0  0  0  0999 V2000
   -1.7605   25.0827    1.3405 C   0  0  0  0  0  0  0  0  0  0  0  0
   -1.8727   25.1472    2.8349 C   0  0  0  0  0  0  0  0  0  0  0  0
   -2.9193   26.0793    3.3695 C   0  0  0  0  0  0  0  0  0  0  0  0
   -3.2751   26.3654    4.7982 C   0  0  0  0  0  0  0  0  0  0  0  0
   -2.6722   25.7902    6.0455 C   0  0  0  0  0  0  0  0  0  0  0  0
   -1.5645   24.7866    6.1719 N   0  0  0  0  0  0  0  0  0  0  0  0
   -0.7862   24.1106    5.0822 C   0  0  0  0  0  0  0  0  0  0  0  0
    0.2604   23.1784    4.5478 C   0  0  0  0  0  0  0  0  0  0  0  0
    0.0689   23.3888    3.0750 C   0  0  0  0  0  0  0  0  0  0  0  0
    1.3735   22.1733    4.5248 C   0  0  0  0  0  0  0  0  0  0  0  0
    0.8154   22.6443    5.8349 C   0  0  0  0  0  0  0  0  0  0  0  0
    1.6670   21.8510    6.7812 C   0  0  0  0  0  0  0  0  0  0  0  0
    2.5185   21.0576    7.7275 C   0  0  0  0  0  0  0  0  0  0  0  0
    3.3701   20.2642    8.6738 C   0  0  0  0  0  0  0  0  0  0  0  0
    1.8022   21.6765    8.8909 C   0  0  0  0  0  0  0  0  0  0  0  0
    2.6537   20.8830    9.8372 C   0  0  0  0  0  0  0  0  0  0  0  0
    1.9373   21.5019   11.0008 C   0  0  0  0  0  0  0  0  0  0  0  0
    1.0858   22.2953   10.0545 C   0  0  0  0  0  0  0  0  0  0  0  0
   -0.9233   24.2710    3.5973 C   0  0  0  0  0  0  0  0  0  0  0  0
   -0.7452   24.1814    0.7027 H   0  0  0  0  0  0  0  0  0  0  0  0
   -2.6637   25.9195    0.4838 H   0  0  0  0  0  0  0  0  0  0  0  0
   -4.0051   27.0675    3.0618 H   0  0  0  0  0  0  0  0  0  0  0  0
   -3.0564   26.2397    1.8844 H   0  0  0  0  0  0  0  0  0  0  0  0
   -4.1446   27.1272    5.7540 H   0  0  0  0  0  0  0  0  0  0  0  0
   -4.2882   27.2952    4.1991 H   0  0  0  0  0  0  0  0  0  0  0  0
   -2.5350   25.6297    7.5305 H   0  0  0  0  0  0  0  0  0  0  0  0
   -3.6647   26.6693    6.7468 H   0  0  0  0  0  0  0  0  0  0  0  0
   -1.1849   24.4093    7.5731 H   0  0  0  0  0  0  0  0  0  0  0  0
   -0.3019   23.6401    6.4217 H   0  0  0  0  0  0  0  0  0  0  0  0
    0.0125   23.4776    1.5787 H   0  0  0  0  0  0  0  0  0  0  0  0
    1.1340   22.4381    2.6145 H   0  0  0  0  0  0  0  0  0  0  0  0
   -0.5212   23.9230    3.0316 H   0  0  0  0  0  0  0  0  0  0  0  0
    1.7008   21.9141    3.0840 H   0  0  0  0  0  0  0  0  0  0  0  0
    2.4578   21.1857    4.8397 H   0  0  0  0  0  0  0  0  0  0  0  0
    0.0550   23.3032    6.9474 H   0  0  0  0  0  0  0  0  0  0  0  0
    0.9509   22.4702    7.9448 H   0  0  0  0  0  0  0  0  0  0  0  0
    2.4815   21.1397    5.7417 H   0  0  0  0  0  0  0  0  0  0  0  0
    3.2349   20.4388    6.5639 H   0  0  0  0  0  0  0  0  0  0  0  0
    4.2216   19.4709    9.6199 H   0  0  0  0  0  0  0  0  0  0  0  0
    4.1857   19.5542    7.6342 H   0  0  0  0  0  0  0  0  0  0  0  0
    3.9782   19.7476    7.4035 H   0  0  0  0  0  0  0  0  0  0  0  0
    2.8017   20.7569    9.5276 H   0  0  0  0  0  0  0  0  0  0  0  0
    3.5053   20.0896   10.7835 H   0  0  0  0  0  0  0  0  0  0  0  0
    3.5549   20.0906    8.9373 H   0  0  0  0  0  0  0  0  0  0  0  0
    1.2209   22.1208   12.1643 H   0  0  0  0  0  0  0  0  0  0  0  0
    2.7889   20.7085   11.9471 H   0  0  0  0  0  0  0  0  0  0  0  0
    0.2343   23.0887    9.1082 H   0  0  0  0  0  0  0  0  0  0  0  0
    0.3694   22.9142   11.2181 H   0  0  0  0  0  0  0  0  0  0  0  0
   -0.6988   24.1045    2.1235 H   0  0  0  0  0  0  0  0  0  0  0  0
    0.1785   23.2817    3.3583 H   0  0  0  0  0  0  0  0  0  0  0  0
  1  2  2  3
  2  3  1  0
  3  4  1  0
  4  5  1  0
  5  6  1  0
  6  7  1  0
  7  8  1  0
  8  9  1  0
  8 10  1  0
 10 11  1  0
 11 12  1  0
 12 13  1  0
 13 14  1  0
 13 15  1  0
 15 16  1  0
 16 17  1  0
 17 18  1  0
  7 19  1  0
 19  2  1  0
 11  8  1  0
 18 15  1  0
  1 20  1  0
  1 21  1  0
  3 22  1  0
  3 23  1  0
  4 24  1  0
  4 25  1  0
  5 26  1  0
  5 27  1  0
  6 28  1  0
  7 29  1  0
  9 30  1  0
  9 31  1  0
  9 32  1  0
 10 33  1  0
 10 34  1  0
 11 35  1  0
 12 36  1  0
 12 37  1  0
 13 38  1  0
 14 39  1  0
 14 40  1  0
 14 41  1  0
 15 42  1  0
 16 43  1  0
 16 44  1  0
 17 45  1  0
 17 46  1  0
 18 47  1  0
 18 48  1  0
 19 49  1  0
 19 50  1  0
M  END
