
     RDKit          2D

 36 40  0  0  0  0  0  0  0  0999 V2000
   17.7336  -17.8350  -10.0183 C   0  0  0  0  0  0  0  0  0  0  0  0
   17.2827  -19.1532  -10.5743 C   0  0  0  0  0  0  0  0  0  0  0  0
   17.1339  -20.3384   -9.6670 C   0  0  0  0  0  0  0  0  0  0  0  0
   16.9851  -21.5236   -8.7597 C   0  0  0  0  0  0  0  0  0  0  0  0
   16.8362  -22.7088   -7.8524 C   0  0  0  0  0  0  0  0  0  0  0  0
   16.6874  -23.8940   -6.9451 C   0  0  0  0  0  0  0  0  0  0  0  0
   16.5386  -25.0792   -6.0379 C   0  0  0  0  0  0  0  0  0  0  0  0
   16.3897  -26.2644   -5.1306 C   0  0  0  0  0  0  0  0  0  0  0  0
   16.2172  -24.1633   -4.8942 C   0  0  0  0  0  0  0  0  0  0  0  0
   17.2127  -22.4427   -9.9231 C   0  0  0  0  0  0  0  0  0  0  0  0
   17.3969  -21.4352  -11.0189 C   0  0  0  0  0  0  0  0  0  0  0  0
   17.4768  -22.9011  -11.3266 C   0  0  0  0  0  0  0  0  0  0  0  0
   17.7410  -23.3595  -12.7303 C   0  0  0  0  0  0  0  0  0  0  0  0
   18.0051  -23.8178  -14.1339 O   0  0  0  0  0  0  0  0  0  0  0  0
   17.9252  -22.3519  -13.8262 C   0  0  0  0  0  0  0  0  0  0  0  0
   17.6611  -21.8935  -12.4225 C   0  0  0  0  0  0  0  0  0  0  0  0
   17.8824  -16.6498  -10.9256 H   0  0  0  0  0  0  0  0  0  0  0  0
   18.0356  -17.7020   -8.5550 H   0  0  0  0  0  0  0  0  0  0  0  0
   16.9807  -19.2862  -12.0375 H   0  0  0  0  0  0  0  0  0  0  0  0
   16.8818  -20.6839  -10.5534 H   0  0  0  0  0  0  0  0  0  0  0  0
   17.5670  -19.5001   -8.5009 H   0  0  0  0  0  0  0  0  0  0  0  0
   16.7574  -20.6044   -7.5964 H   0  0  0  0  0  0  0  0  0  0  0  0
   17.2701  -21.8708   -6.6865 H   0  0  0  0  0  0  0  0  0  0  0  0
   16.4323  -23.5874   -8.7944 H   0  0  0  0  0  0  0  0  0  0  0  0
   16.2476  -24.7305   -8.1101 H   0  0  0  0  0  0  0  0  0  0  0  0
   16.9558  -23.3184   -6.3278 H   0  0  0  0  0  0  0  0  0  0  0  0
   16.8599  -25.9950   -7.1816 H   0  0  0  0  0  0  0  0  0  0  0  0
   16.2409  -27.4496   -4.2234 H   0  0  0  0  0  0  0  0  0  0  0  0
   16.1141  -27.1386   -6.3179 H   0  0  0  0  0  0  0  0  0  0  0  0
   16.5405  -25.8373   -4.3695 H   0  0  0  0  0  0  0  0  0  0  0  0
   15.8959  -23.2475   -3.7505 H   0  0  0  0  0  0  0  0  0  0  0  0
   16.0693  -24.7934   -4.2895 H   0  0  0  0  0  0  0  0  0  0  0  0
   16.3189  -23.4014   -5.3342 H   0  0  0  0  0  0  0  0  0  0  0  0
   17.1461  -23.7046   -9.4480 H   0  0  0  0  0  0  0  0  0  0  0  0
   17.3170  -19.9693  -10.7112 H   0  0  0  0  0  0  0  0  0  0  0  0
   18.1095  -21.3444  -14.9220 H   0  0  0  0  0  0  0  0  0  0  0  0
  1  2  2  3
  2  3  1  0
  3  4  1  0
  4  5  1  0
  5  6  1  0
  6  7  1  0
  7  8  1  0
  7  9  1  0
  4 10  1  0
 10 11  1  0
 11 12  1  0
 12 13  1  0
 13 14  1  0
 14 15  1  0
 15 16  1  0
 12 10  1  0
 15 13  1  0
 16 11  1  0
 16 12  1  0
 16 13  1  0
  1 17  1  0
  1 18  1  0
  2 19  1  0
  3 20  1  0
  3 21  1  0
  4 22  1  0
  5 23  1  0
  5 24  1  0
  6 25  1  0
  6 26  1  0
  7 27  1  0
  8 28  1  0
  8 29  1  0
  8 30  1  0
  9 31  1  0
  9 32  1  0
  9 33  1  0
 10 34  1  0
 11 35  1  0
 15 36  1  0
M  END
