
     RDKit          2D

 40 42  0  0  0  0  0  0  0  0999 V2000
    2.1332   30.4938    7.1942 O   0  0  0  0  0  0  0  0  0  0  0  0
    1.0069   29.5844    6.8010 C   0  0  0  0  0  0  0  0  0  0  0  0
   -0.1194   28.6751    6.4078 C   0  0  0  0  0  0  0  0  0  0  0  0
   -1.2457   27.7658    6.0146 C   0  0  0  0  0  0  0  0  0  0  0  0
   -2.3720   26.8565    5.6214 C   0  0  0  0  0  0  0  0  0  0  0  0
   -1.5235   25.6638    5.9492 O   0  0  0  0  0  0  0  0  0  0  0  0
   -2.0747   24.2800    5.7726 C   0  0  0  0  0  0  0  0  0  0  0  0
   -2.1487   22.7818    5.7710 C   0  0  0  0  0  0  0  0  0  0  0  0
   -0.8921   23.4701    6.2152 C   0  0  0  0  0  0  0  0  0  0  0  0
   -0.0437   22.2774    6.5430 C   0  0  0  0  0  0  0  0  0  0  0  0
    1.1753   23.1512    6.5674 C   0  0  0  0  0  0  0  0  0  0  0  0
    2.0237   21.9585    6.8952 C   0  0  0  0  0  0  0  0  0  0  0  0
    0.8048   21.0846    6.8708 C   0  0  0  0  0  0  0  0  0  0  0  0
   -3.4983   25.9473    5.2282 C   0  0  0  0  0  0  0  0  0  0  0  0
   -4.8469   25.5007    4.7465 C   0  0  0  0  0  0  0  0  0  0  0  0
   -4.5294   26.9639    4.8368 C   0  0  0  0  0  0  0  0  0  0  0  0
    1.9573   31.9815    7.1181 H   0  0  0  0  0  0  0  0  0  0  0  0
    0.1560   30.7772    6.4795 H   0  0  0  0  0  0  0  0  0  0  0  0
    1.8578   28.3917    7.1225 H   0  0  0  0  0  0  0  0  0  0  0  0
   -0.9676   29.8678    6.0792 H   0  0  0  0  0  0  0  0  0  0  0  0
    0.7288   27.4824    6.7364 H   0  0  0  0  0  0  0  0  0  0  0  0
   -2.0938   28.9585    5.6858 H   0  0  0  0  0  0  0  0  0  0  0  0
   -0.3975   26.5731    6.3434 H   0  0  0  0  0  0  0  0  0  0  0  0
   -3.0768   28.1512    5.3439 H   0  0  0  0  0  0  0  0  0  0  0  0
   -2.8200   24.3588    5.5010 H   0  0  0  0  0  0  0  0  0  0  0  0
   -3.5484   22.5906    5.2665 H   0  0  0  0  0  0  0  0  0  0  0  0
   -1.9285   21.4537    5.8732 H   0  0  0  0  0  0  0  0  0  0  0  0
   -0.2878   24.3583    6.4194 H   0  0  0  0  0  0  0  0  0  0  0  0
   -1.0395   21.3659    6.5572 H   0  0  0  0  0  0  0  0  0  0  0  0
    2.3942   24.0251    6.5918 H   0  0  0  0  0  0  0  0  0  0  0  0
    0.6697   24.0918    6.3324 H   0  0  0  0  0  0  0  0  0  0  0  0
    2.8722   20.7657    7.2231 H   0  0  0  0  0  0  0  0  0  0  0  0
    3.2427   22.8323    6.9197 H   0  0  0  0  0  0  0  0  0  0  0  0
   -0.4142   20.2109    6.8464 H   0  0  0  0  0  0  0  0  0  0  0  0
    1.6532   19.8920    7.1987 H   0  0  0  0  0  0  0  0  0  0  0  0
   -3.2422   25.1998    5.3338 H   0  0  0  0  0  0  0  0  0  0  0  0
   -4.6753   24.0131    4.8340 H   0  0  0  0  0  0  0  0  0  0  0  0
   -6.2550   25.5708    4.2343 H   0  0  0  0  0  0  0  0  0  0  0  0
   -5.8272   27.5422    4.3561 H   0  0  0  0  0  0  0  0  0  0  0  0
   -3.9110   28.3156    5.0382 H   0  0  0  0  0  0  0  0  0  0  0  0
  1  2  1  0
  2  3  1  0
  3  4  1  0
  4  5  1  0
  5  6  1  0
  6  7  1  0
  7  8  1  0
  8  9  1  0
  9 10  1  0
 10 11  1  0
 11 12  1  0
 12 13  1  0
  5 14  1  0
 14 15  1  0
 15 16  1  0
  9  7  1  0
 13 10  1  0
 16 14  1  0
  1 17  1  0
  2 18  1  0
  2 19  1  0
  3 20  1  0
  3 21  1  0
  4 22  1  0
  4 23  1  0
  5 24  1  0
  7 25  1  0
  8 26  1  0
  8 27  1  0
  9 28  1  0
 10 29  1  0
 11 30  1  0
 11 31  1  0
 12 32  1  0
 12 33  1  0
 13 34  1  0
 13 35  1  0
 14 36  1  0
 15 37  1  0
 15 38  1  0
 16 39  1  0
 16 40  1  0
M  END
