
     RDKit          2D

 26 28  0  0  0  0  0  0  0  0999 V2000
   16.9709  -18.6958  -11.6401 O   0  0  0  0  0  0  0  0  0  0  0  0
   16.6071  -20.0873  -12.0658 C   0  0  0  0  0  0  0  0  0  0  0  0
   16.9230  -19.8943  -13.5193 O   0  0  0  0  0  0  0  0  0  0  0  0
   16.4195  -21.2201  -13.0310 C   0  0  0  0  0  0  0  0  0  0  0  0
   15.9117  -22.4042  -12.2628 C   0  0  0  0  0  0  0  0  0  0  0  0
   15.7854  -22.0033  -10.8230 C   0  0  0  0  0  0  0  0  0  0  0  0
   15.3044  -22.9302   -9.7462 C   0  0  0  0  0  0  0  0  0  0  0  0
   15.1344  -22.6541   -8.2816 C   0  0  0  0  0  0  0  0  0  0  0  0
   15.4034  -21.3829   -7.5322 C   0  0  0  0  0  0  0  0  0  0  0  0
   15.9089  -20.0738   -8.0622 C   0  0  0  0  0  0  0  0  0  0  0  0
   16.2701  -19.7127   -9.4724 C   0  0  0  0  0  0  0  0  0  0  0  0
   16.2152  -20.5714  -10.7012 C   0  0  0  0  0  0  0  0  0  0  0  0
   17.4610  -17.7052  -12.6543 H   0  0  0  0  0  0  0  0  0  0  0  0
   16.4406  -21.8983  -14.3687 H   0  0  0  0  0  0  0  0  0  0  0  0
   15.9327  -23.0824  -13.6006 H   0  0  0  0  0  0  0  0  0  0  0  0
   15.4411  -23.8221  -12.1269 H   0  0  0  0  0  0  0  0  0  0  0  0
   15.4822  -23.1382  -11.1334 H   0  0  0  0  0  0  0  0  0  0  0  0
   15.1620  -23.8298  -10.5504 H   0  0  0  0  0  0  0  0  0  0  0  0
   14.7989  -24.2393   -9.2162 H   0  0  0  0  0  0  0  0  0  0  0  0
   14.6285  -23.8008   -7.4576 H   0  0  0  0  0  0  0  0  0  0  0  0
   15.1309  -21.4266   -6.0577 H   0  0  0  0  0  0  0  0  0  0  0  0
   15.7389  -19.7978   -6.5976 H   0  0  0  0  0  0  0  0  0  0  0  0
   16.3022  -18.6579   -7.7615 H   0  0  0  0  0  0  0  0  0  0  0  0
   16.5898  -18.3704   -8.8841 H   0  0  0  0  0  0  0  0  0  0  0  0
   16.7511  -18.7857  -10.5492 H   0  0  0  0  0  0  0  0  0  0  0  0
   15.7957  -21.1743   -9.3933 H   0  0  0  0  0  0  0  0  0  0  0  0
  1  2  1  0
  2  3  1  0
  3  4  1  0
  4  5  1  0
  5  6  1  0
  6  7  1  0
  7  8  1  0
  8  9  2  0
  9 10  1  0
 10 11  1  0
 11 12  1  0
  4  2  1  0
 12  6  1  0
 12  2  1  0
  1 13  1  0
  4 14  1  0
  5 15  1  0
  5 16  1  0
  6 17  1  0
  7 18  1  0
  7 19  1  0
  8 20  1  0
  9 21  1  0
 10 22  1  0
 10 23  1  0
 11 24  1  0
 11 25  1  0
 12 26  1  0
M  END
