
     RDKit          2D

 55 62  0  0  0  0  0  0  0  0999 V2000
    2.9906   24.1531    8.3990 O   0  0  0  0  0  0  0  0  0  0  0  0
    3.1998   22.6713    8.5032 C   0  0  0  0  0  0  0  0  0  0  0  0
    1.8588   22.5937    7.8359 C   0  0  0  0  0  0  0  0  0  0  0  0
    1.5104   21.1451    7.6626 C   0  0  0  0  0  0  0  0  0  0  0  0
    2.5077   20.1407    8.1590 C   0  0  0  0  0  0  0  0  0  0  0  0
    3.4069   21.2549    8.6065 C   0  0  0  0  0  0  0  0  0  0  0  0
    2.4095   22.2592    8.1100 C   0  0  0  0  0  0  0  0  0  0  0  0
    1.4121   23.2635    7.6135 C   0  0  0  0  0  0  0  0  0  0  0  0
    0.4148   24.2679    7.1171 C   0  0  0  0  0  0  0  0  0  0  0  0
   -0.5826   25.2723    6.6206 C   0  0  0  0  0  0  0  0  0  0  0  0
   -1.5800   26.2766    6.1241 C   0  0  0  0  0  0  0  0  0  0  0  0
   -2.5774   27.2810    5.6276 C   0  0  0  0  0  0  0  0  0  0  0  0
   -3.2073   28.6058    5.3145 N   0  0  0  0  0  0  0  0  0  0  0  0
   -1.8656   28.5526    5.9832 C   0  0  0  0  0  0  0  0  0  0  0  0
   -1.5861   30.0196    6.1234 O   0  0  0  0  0  0  0  0  0  0  0  0
   -1.4812   24.1582    6.1719 C   0  0  0  0  0  0  0  0  0  0  0  0
   -2.6667   23.4548    5.5806 C   0  0  0  0  0  0  0  0  0  0  0  0
   -2.6197   24.9538    5.6054 C   0  0  0  0  0  0  0  0  0  0  0  0
   -3.9329   25.2665    4.9516 C   0  0  0  0  0  0  0  0  0  0  0  0
   -4.4361   23.8761    4.6995 C   0  0  0  0  0  0  0  0  0  0  0  0
   -5.2625   25.0587    4.2890 C   0  0  0  0  0  0  0  0  0  0  0  0
   -6.5072   25.6214    3.6694 C   0  0  0  0  0  0  0  0  0  0  0  0
   -7.0104   24.2310    3.4174 C   0  0  0  0  0  0  0  0  0  0  0  0
   -6.8238   22.7455    3.5090 N   0  0  0  0  0  0  0  0  0  0  0  0
   -5.7657   23.6683    4.0370 C   0  0  0  0  0  0  0  0  0  0  0  0
    4.0347   25.0963    8.9186 H   0  0  0  0  0  0  0  0  0  0  0  0
    4.4972   23.0587    9.1489 H   0  0  0  0  0  0  0  0  0  0  0  0
    1.1455   22.6220    7.4809 H   0  0  0  0  0  0  0  0  0  0  0  0
    2.0928   24.0708    7.9522 H   0  0  0  0  0  0  0  0  0  0  0  0
    0.1693   21.0675    6.9952 H   0  0  0  0  0  0  0  0  0  0  0  0
    3.5051   19.1364    8.6555 H   0  0  0  0  0  0  0  0  0  0  0  0
    1.6086   19.0266    7.7116 H   0  0  0  0  0  0  0  0  0  0  0  0
    4.7480   21.3325    9.2739 H   0  0  0  0  0  0  0  0  0  0  0  0
    2.6468   23.3201    8.2280 H   0  0  0  0  0  0  0  0  0  0  0  0
    0.8139   22.6829    7.3145 H   0  0  0  0  0  0  0  0  0  0  0  0
    1.8933   24.6636    7.8550 H   0  0  0  0  0  0  0  0  0  0  0  0
   -0.3549   23.0397    6.7310 H   0  0  0  0  0  0  0  0  0  0  0  0
    1.3127   25.3821    7.5669 H   0  0  0  0  0  0  0  0  0  0  0  0
    0.3159   26.3865    7.0693 H   0  0  0  0  0  0  0  0  0  0  0  0
   -0.5665   27.2601    6.6297 H   0  0  0  0  0  0  0  0  0  0  0  0
   -2.6933   25.4387    5.5688 H   0  0  0  0  0  0  0  0  0  0  0  0
   -3.7284   26.5092    5.0535 H   0  0  0  0  0  0  0  0  0  0  0  0
   -4.3456   29.4015    4.7477 H   0  0  0  0  0  0  0  0  0  0  0  0
   -0.5689   28.1635    6.6292 H   0  0  0  0  0  0  0  0  0  0  0  0
   -0.3092   30.4823    6.7601 H   0  0  0  0  0  0  0  0  0  0  0  0
   -0.7899   22.8719    6.5150 H   0  0  0  0  0  0  0  0  0  0  0  0
   -2.2521   22.0278    5.7858 H   0  0  0  0  0  0  0  0  0  0  0  0
   -3.9636   23.0673    4.9341 H   0  0  0  0  0  0  0  0  0  0  0  0
   -2.4327   26.4391    5.7000 H   0  0  0  0  0  0  0  0  0  0  0  0
   -4.0497   26.7609    4.8948 H   0  0  0  0  0  0  0  0  0  0  0  0
   -3.7447   22.5899    5.0427 H   0  0  0  0  0  0  0  0  0  0  0  0
   -7.7521   26.1841    3.0499 H   0  0  0  0  0  0  0  0  0  0  0  0
   -6.0041   27.0118    3.9214 H   0  0  0  0  0  0  0  0  0  0  0  0
   -8.3430   24.4147    2.7538 H   0  0  0  0  0  0  0  0  0  0  0  0
   -7.3269   21.3550    3.2570 H   0  0  0  0  0  0  0  0  0  0  0  0
  1  2  1  0
  2  3  1  0
  3  4  1  0
  4  5  1  0
  5  6  1  0
  6  7  1  0
  7  8  1  0
  8  9  1  0
  9 10  1  0
 10 11  1  0
 11 12  1  0
 12 13  1  0
 13 14  1  0
 14 15  1  0
 10 16  1  0
 16 17  1  0
 17 18  1  0
 18 19  1  0
 19 20  1  0
 20 21  1  0
 21 22  1  0
 22 23  1  0
 23 24  1  0
 24 25  1  0
  6  2  1  0
 14 12  1  0
 18 16  1  0
 21 19  1  0
 25 23  1  0
  7  4  1  0
 25 20  1  0
 25 21  1  0
  1 26  1  0
  2 27  1  0
  3 28  1  0
  3 29  1  0
  4 30  1  0
  5 31  1  0
  5 32  1  0
  6 33  1  0
  7 34  1  0
  8 35  1  0
  8 36  1  0
  9 37  1  0
  9 38  1  0
 10 39  1  0
 11 40  1  0
 11 41  1  0
 12 42  1  0
 13 43  1  0
 14 44  1  0
 15 45  1  0
 16 46  1  0
 17 47  1  0
 17 48  1  0
 18 49  1  0
 19 50  1  0
 20 51  1  0
 22 52  1  0
 22 53  1  0
 23 54  1  0
 24 55  1  0
M  END
