
     RDKit          2D

 24 28  0  0  0  0  0  0  0  0999 V2000
   -6.3830   24.3144   -0.0876 F   0  0  0  0  0  0  0  0  0  0  0  0
   -5.2028   23.4665    0.2841 C   0  0  0  0  0  0  0  0  0  0  0  0
   -4.9582   23.9581    1.6800 F   0  0  0  0  0  0  0  0  0  0  0  0
   -5.0375   22.6805   -0.9828 O   0  0  0  0  0  0  0  0  0  0  0  0
   -4.1075   22.4478    0.1709 C   0  0  0  0  0  0  0  0  0  0  0  0
   -3.4825   22.5857    1.5276 O   0  0  0  0  0  0  0  0  0  0  0  0
   -2.3023   21.7377    1.8993 C   0  0  0  0  0  0  0  0  0  0  0  0
   -2.0357   20.8918    0.6896 C   0  0  0  0  0  0  0  0  0  0  0  0
   -0.8853   20.2406    1.3985 C   0  0  0  0  0  0  0  0  0  0  0  0
   -1.1519   21.0866    2.6081 C   0  0  0  0  0  0  0  0  0  0  0  0
   -1.9579   22.1448    3.3013 C   0  0  0  0  0  0  0  0  0  0  0  0
   -2.7640   23.2031    3.9944 C   0  0  0  0  0  0  0  0  0  0  0  0
   -2.4196   23.6102    5.3964 C   0  0  0  0  0  0  0  0  0  0  0  0
   -1.6135   22.5519    4.7033 C   0  0  0  0  0  0  0  0  0  0  0  0
   -3.5422   21.6805   -0.3651 H   0  0  0  0  0  0  0  0  0  0  0  0
   -1.7691   20.0457   -0.5200 H   0  0  0  0  0  0  0  0  0  0  0  0
   -2.8444   21.2877    0.0692 H   0  0  0  0  0  0  0  0  0  0  0  0
    0.2651   19.5895    2.1075 H   0  0  0  0  0  0  0  0  0  0  0  0
   -0.6187   19.3946    0.1889 H   0  0  0  0  0  0  0  0  0  0  0  0
   -0.1096   20.6766    3.6060 H   0  0  0  0  0  0  0  0  0  0  0  0
   -3.9144   23.8542    3.2855 H   0  0  0  0  0  0  0  0  0  0  0  0
   -3.4722   24.6528    5.6309 H   0  0  0  0  0  0  0  0  0  0  0  0
   -1.7097   23.6552    6.7170 H   0  0  0  0  0  0  0  0  0  0  0  0
   -0.4631   21.9008    5.4122 H   0  0  0  0  0  0  0  0  0  0  0  0
  1  2  1  0
  2  3  1  0
  2  4  1  0
  4  5  1  0
  5  6  1  0
  6  7  1  0
  7  8  1  0
  8  9  1  0
  9 10  1  0
 10 11  1  0
 11 12  1  0
 12 13  1  0
 13 14  1  0
  5  2  1  0
 10  7  1  0
 14 11  1  0
 11  7  1  0
 14 12  1  0
  5 15  1  0
  8 16  1  0
  8 17  1  0
  9 18  1  0
  9 19  1  0
 10 20  1  0
 12 21  1  0
 13 22  1  0
 13 23  1  0
 14 24  1  0
M  END
