
     RDKit          2D

 35 35  0  0  0  0  0  0  0  0999 V2000
    1.9321   22.4935    4.9942 C   0  0  0  0  0  0  0  0  0  0  0  0
    1.1695   23.4802    5.8278 N   0  0  0  0  0  0  0  0  0  0  0  0
    0.5610   24.6920    5.1864 C   0  0  0  0  0  0  0  0  0  0  0  0
   -0.2016   25.6787    6.0200 C   0  0  0  0  0  0  0  0  0  0  0  0
   -0.9642   26.6654    6.8535 C   0  0  0  0  0  0  0  0  0  0  0  0
   -0.4536   26.5144    4.8001 C   0  0  0  0  0  0  0  0  0  0  0  0
   -0.7056   27.3502    3.5802 C   0  0  0  0  0  0  0  0  0  0  0  0
   -0.9576   28.1860    2.3604 C   0  0  0  0  0  0  0  0  0  0  0  0
   -1.7439   29.4584    2.4724 O   0  0  0  0  0  0  0  0  0  0  0  0
   -0.4232   27.7493    1.0286 C   0  0  0  0  0  0  0  0  0  0  0  0
    0.1112   27.3126   -0.3032 O   0  0  0  0  0  0  0  0  0  0  0  0
   -1.2161   27.5012    5.6337 C   0  0  0  0  0  0  0  0  0  0  0  0
   -1.5967   28.4956    4.5771 N   0  0  0  0  0  0  0  0  0  0  0  0
   -1.1004   26.8495    6.9797 C   0  0  0  0  0  0  0  0  0  0  0  0
   -1.8465   28.1426    6.8342 C   0  0  0  0  0  0  0  0  0  0  0  0
    2.6947   21.5068    4.1606 H   0  0  0  0  0  0  0  0  0  0  0  0
    2.1937   21.6636    6.2160 H   0  0  0  0  0  0  0  0  0  0  0  0
    1.6704   23.3235    3.7724 H   0  0  0  0  0  0  0  0  0  0  0  0
    0.8105   24.7606    3.7088 H   0  0  0  0  0  0  0  0  0  0  0  0
    0.0504   24.8430    7.2397 H   0  0  0  0  0  0  0  0  0  0  0  0
   -1.7268   27.6521    7.6870 H   0  0  0  0  0  0  0  0  0  0  0  0
   -0.7052   25.8338    8.0747 H   0  0  0  0  0  0  0  0  0  0  0  0
   -1.4000   27.7110    5.8702 H   0  0  0  0  0  0  0  0  0  0  0  0
    0.2726   25.6370    3.8240 H   0  0  0  0  0  0  0  0  0  0  0  0
   -1.5034   28.5116    4.0945 H   0  0  0  0  0  0  0  0  0  0  0  0
    0.0539   26.3616    2.7460 H   0  0  0  0  0  0  0  0  0  0  0  0
   -1.0226   28.9665    0.3890 H   0  0  0  0  0  0  0  0  0  0  0  0
    0.1762   26.5321    1.6682 H   0  0  0  0  0  0  0  0  0  0  0  0
    0.8975   26.0402   -0.4153 H   0  0  0  0  0  0  0  0  0  0  0  0
   -2.3994   29.7087    4.9432 H   0  0  0  0  0  0  0  0  0  0  0  0
   -1.1745   28.2769    3.1545 H   0  0  0  0  0  0  0  0  0  0  0  0
   -1.2634   26.6190    8.4529 H   0  0  0  0  0  0  0  0  0  0  0  0
   -0.3273   25.5641    6.9709 H   0  0  0  0  0  0  0  0  0  0  0  0
   -2.4460   29.3597    6.1946 H   0  0  0  0  0  0  0  0  0  0  0  0
   -2.2687   28.3613    8.2568 H   0  0  0  0  0  0  0  0  0  0  0  0
  1  2  1  0
  2  3  2  3
  3  4  1  0
  4  5  1  0
  4  6  1  0
  6  7  1  0
  7  8  1  0
  8  9  2  0
  8 10  1  0
 10 11  1  0
  6 12  1  0
 12 13  1  0
 12 14  1  0
 14 15  1  0
 15 12  1  0
  1 16  1  0
  1 17  1  0
  1 18  1  0
  3 19  1  0
  4 20  1  1
  5 21  1  0
  5 22  1  0
  5 23  1  0
  6 24  1  1
  7 25  1  0
  7 26  1  0
 10 27  1  0
 10 28  1  0
 11 29  1  0
 13 30  1  0
 13 31  1  0
 14 32  1  0
 14 33  1  0
 15 34  1  0
 15 35  1  0
M  END
