
     RDKit          2D

 70 73  0  0  0  0  0  0  0  0999 V2000
    0.9279   23.2822    4.8675 C   0  0  0  0  0  0  0  0  0  0  0  0
   -0.0256   22.1421    4.6654 C   0  0  0  0  0  0  0  0  0  0  0  0
    0.1550   20.7414    5.1710 C   0  0  0  0  0  0  0  0  0  0  0  0
    0.6040   19.4529    5.7938 C   0  0  0  0  0  0  0  0  0  0  0  0
   -1.0349   19.9361    4.7403 C   0  0  0  0  0  0  0  0  0  0  0  0
   -1.9509   20.8389    3.9684 C   0  0  0  0  0  0  0  0  0  0  0  0
   -3.2725   20.5958    3.3018 C   0  0  0  0  0  0  0  0  0  0  0  0
   -3.9702   21.7160    2.5889 C   0  0  0  0  0  0  0  0  0  0  0  0
   -3.3465   23.0793    2.5426 C   0  0  0  0  0  0  0  0  0  0  0  0
   -3.1590   24.5337    2.2267 C   0  0  0  0  0  0  0  0  0  0  0  0
   -2.9716   25.9880    1.9107 N   0  0  0  0  0  0  0  0  0  0  0  0
   -4.0114   26.7234    1.1183 C   0  0  0  0  0  0  0  0  0  0  0  0
   -4.8282   25.4687    1.0255 C   0  0  0  0  0  0  0  0  0  0  0  0
   -3.1947   27.9781    1.2110 C   0  0  0  0  0  0  0  0  0  0  0  0
   -4.3607   28.4846    0.4147 C   0  0  0  0  0  0  0  0  0  0  0  0
   -4.4035   29.9185   -0.0235 C   0  0  0  0  0  0  0  0  0  0  0  0
   -3.2803   30.8460    0.3346 C   0  0  0  0  0  0  0  0  0  0  0  0
   -2.1143   30.3395    1.1309 C   0  0  0  0  0  0  0  0  0  0  0  0
   -0.8053   30.3300    1.8633 C   0  0  0  0  0  0  0  0  0  0  0  0
   -0.8481   31.7639    1.4251 C   0  0  0  0  0  0  0  0  0  0  0  0
    0.2751   32.6915    1.7832 C   0  0  0  0  0  0  0  0  0  0  0  0
    1.4410   32.1850    2.5794 C   0  0  0  0  0  0  0  0  0  0  0  0
    1.4838   30.7511    3.0176 C   0  0  0  0  0  0  0  0  0  0  0  0
    0.3607   29.8236    2.6596 C   0  0  0  0  0  0  0  0  0  0  0  0
   -2.0715   28.9056    1.5691 C   0  0  0  0  0  0  0  0  0  0  0  0
   -2.0249   23.3225    3.2092 C   0  0  0  0  0  0  0  0  0  0  0  0
   -1.3271   22.2023    3.9222 C   0  0  0  0  0  0  0  0  0  0  0  0
    2.1979   23.0704    5.6369 H   0  0  0  0  0  0  0  0  0  0  0  0
    0.6114   24.6342    4.3001 H   0  0  0  0  0  0  0  0  0  0  0  0
    1.4387   21.2774    5.7319 H   0  0  0  0  0  0  0  0  0  0  0  0
    1.0530   18.1643    6.4168 H   0  0  0  0  0  0  0  0  0  0  0  0
   -0.0283   19.0166    5.5811 H   0  0  0  0  0  0  0  0  0  0  0  0
    1.8579   20.1218    6.2737 H   0  0  0  0  0  0  0  0  0  0  0  0
   -1.9723   18.7803    4.5517 H   0  0  0  0  0  0  0  0  0  0  0  0
   -0.7396   19.2852    5.0931 H   0  0  0  0  0  0  0  0  0  0  0  0
   -2.4494   19.4301    4.0977 H   0  0  0  0  0  0  0  0  0  0  0  0
   -4.4997   19.8769    2.8253 H   0  0  0  0  0  0  0  0  0  0  0  0
   -3.1607   19.1766    3.7744 H   0  0  0  0  0  0  0  0  0  0  0  0
   -5.0100   22.4514    1.7964 H   0  0  0  0  0  0  0  0  0  0  0  0
   -4.9551   20.6081    2.3599 H   0  0  0  0  0  0  0  0  0  0  0  0
   -4.6030   23.3413    1.7662 H   0  0  0  0  0  0  0  0  0  0  0  0
   -4.4806   24.3657    1.5373 H   0  0  0  0  0  0  0  0  0  0  0  0
   -1.8374   24.7017    2.9159 H   0  0  0  0  0  0  0  0  0  0  0  0
   -1.6936   26.5475    2.4617 H   0  0  0  0  0  0  0  0  0  0  0  0
   -5.1430   27.3004    0.3205 H   0  0  0  0  0  0  0  0  0  0  0  0
   -5.6449   24.2140    0.9329 H   0  0  0  0  0  0  0  0  0  0  0  0
   -5.8676   26.2040    0.2325 H   0  0  0  0  0  0  0  0  0  0  0  0
   -4.1505   24.3326    1.7328 H   0  0  0  0  0  0  0  0  0  0  0  0
   -2.1989   27.1780    1.9973 H   0  0  0  0  0  0  0  0  0  0  0  0
   -5.6697   28.4942   -0.3177 H   0  0  0  0  0  0  0  0  0  0  0  0
   -4.9226   27.0966    0.5026 H   0  0  0  0  0  0  0  0  0  0  0  0
   -5.5694   30.4250   -0.8197 H   0  0  0  0  0  0  0  0  0  0  0  0
   -3.3231   32.2799   -0.1035 H   0  0  0  0  0  0  0  0  0  0  0  0
   -1.8588   31.7914    0.8538 H   0  0  0  0  0  0  0  0  0  0  0  0
   -1.0609   28.8781    2.1404 H   0  0  0  0  0  0  0  0  0  0  0  0
   -1.3404   33.0282    0.7854 H   0  0  0  0  0  0  0  0  0  0  0  0
   -2.1658   31.4461    0.7825 H   0  0  0  0  0  0  0  0  0  0  0  0
    1.0919   33.9462    1.8759 H   0  0  0  0  0  0  0  0  0  0  0  0
   -0.6073   33.6336    1.0191 H   0  0  0  0  0  0  0  0  0  0  0  0
    2.7500   32.1755    3.3118 H   0  0  0  0  0  0  0  0  0  0  0  0
    1.8528   33.6156    2.3956 H   0  0  0  0  0  0  0  0  0  0  0  0
    1.9761   29.4868    3.6573 H   0  0  0  0  0  0  0  0  0  0  0  0
    2.7780   31.2395    3.5979 H   0  0  0  0  0  0  0  0  0  0  0  0
   -0.4561   28.5689    2.5668 H   0  0  0  0  0  0  0  0  0  0  0  0
    1.2430   28.8814    3.4236 H   0  0  0  0  0  0  0  0  0  0  0  0
   -1.5793   27.6413    2.2088 H   0  0  0  0  0  0  0  0  0  0  0  0
   -0.7539   29.2234    2.2117 H   0  0  0  0  0  0  0  0  0  0  0  0
   -0.8668   24.1902    3.6041 H   0  0  0  0  0  0  0  0  0  0  0  0
   -2.1367   24.7417    2.7366 H   0  0  0  0  0  0  0  0  0  0  0  0
   -0.4571   23.4168    4.0562 H   0  0  0  0  0  0  0  0  0  0  0  0
  1  2  2  3
  2  3  1  0
  3  4  1  0
  3  5  1  0
  5  6  1  0
  6  7  1  0
  7  8  1  0
  8  9  1  0
  9 10  1  0
 10 11  1  0
 11 12  1  0
 12 13  1  0
 12 14  1  0
 14 15  1  0
 15 16  1  0
 16 17  2  0
 17 18  1  0
 18 19  1  0
 19 20  1  0
 20 21  1  0
 21 22  1  0
 22 23  1  0
 23 24  1  0
 18 25  1  0
  9 26  1  0
 26 27  1  0
 27  2  1  0
 27  6  1  0
 25 14  1  0
 24 19  1  0
  1 28  1  0
  1 29  1  0
  3 30  1  0
  4 31  1  0
  4 32  1  0
  4 33  1  0
  5 34  1  0
  5 35  1  0
  6 36  1  0
  7 37  1  0
  7 38  1  0
  8 39  1  0
  8 40  1  0
  9 41  1  0
 10 42  1  0
 10 43  1  0
 11 44  1  0
 12 45  1  0
 13 46  1  0
 13 47  1  0
 13 48  1  0
 14 49  1  0
 15 50  1  0
 15 51  1  0
 16 52  1  0
 17 53  1  0
 18 54  1  0
 19 55  1  0
 20 56  1  0
 20 57  1  0
 21 58  1  0
 21 59  1  0
 22 60  1  0
 22 61  1  0
 23 62  1  0
 23 63  1  0
 24 64  1  0
 24 65  1  0
 25 66  1  0
 25 67  1  0
 26 68  1  0
 26 69  1  0
 27 70  1  0
M  END
