
     RDKit          2D

 52 55  0  0  0  0  0  0  0  0999 V2000
   -2.1434   30.1621    2.7991 C   0  0  0  0  0  0  0  0  0  0  0  0
   -0.7496   29.8137    2.3677 C   0  0  0  0  0  0  0  0  0  0  0  0
    0.4080   30.0819    3.2832 C   0  0  0  0  0  0  0  0  0  0  0  0
    1.8017   29.7335    2.8518 C   0  0  0  0  0  0  0  0  0  0  0  0
    3.0414   30.2155    2.1583 C   0  0  0  0  0  0  0  0  0  0  0  0
    4.3271   29.4798    1.9224 C   0  0  0  0  0  0  0  0  0  0  0  0
    4.6907   28.0803    2.3216 N   0  0  0  0  0  2  0  0  0  0  0  0
    3.8583   27.0711    3.0554 C   0  0  0  0  0  0  0  0  0  0  0  0
    5.1440   26.3353    2.8195 N   0  0  0  0  0  2  0  0  0  0  0  0
    2.4568   27.2119    3.5712 C   0  0  0  0  0  0  0  0  0  0  0  0
    2.8204   25.8124    3.9704 C   0  0  0  0  0  0  0  0  0  0  0  0
    4.2175   25.7417    3.4290 C   0  0  0  0  0  0  0  0  0  0  0  0
    2.6987   24.4375    4.5577 O   0  0  0  0  0  0  0  0  0  0  0  0
    1.5495   25.3971    4.6505 C   0  0  0  0  0  0  0  0  0  0  0  0
    0.5582   24.5458    5.3872 C   0  0  0  0  0  0  0  0  0  0  0  0
    1.5471   23.4183    5.4148 O   0  0  0  0  0  0  0  0  0  0  0  0
   -0.4330   23.6945    6.1239 C   0  0  0  0  0  0  0  0  0  0  0  0
   -1.4243   22.8434    6.8606 C   0  0  0  0  0  0  0  0  0  0  0  0
   -1.4236   24.8205    6.0920 C   0  0  0  0  0  0  0  0  0  0  0  0
    0.5576   22.5687    6.1558 C   0  0  0  0  0  0  0  0  0  0  0  0
    1.5415   28.3968    3.4805 Al  0  0  0  0  0  3  0  0  0  0  0  0
    1.8536   31.1224    2.2875 C   0  0  0  0  0  0  0  0  0  0  0  0
    1.1977   32.4478    2.0362 C   0  0  0  0  0  0  0  0  0  0  0  0
   -3.5371   30.5105    3.2306 H   0  0  0  0  0  0  0  0  0  0  0  0
   -2.5267   30.4001    1.3686 H   0  0  0  0  0  0  0  0  0  0  0  0
   -1.7601   29.9241    4.2297 H   0  0  0  0  0  0  0  0  0  0  0  0
   -0.5135   29.1971    1.0209 H   0  0  0  0  0  0  0  0  0  0  0  0
   -0.0060   30.6996    4.5859 H   0  0  0  0  0  0  0  0  0  0  0  0
    3.6962   31.3604    1.4438 H   0  0  0  0  0  0  0  0  0  0  0  0
    4.5872   30.8165    1.2936 H   0  0  0  0  0  0  0  0  0  0  0  0
    5.7285   29.3390    1.4066 H   0  0  0  0  0  0  0  0  0  0  0  0
    3.9013   26.3239    3.3301 H   0  0  0  0  0  0  0  0  0  0  0  0
    5.3017   24.9254    3.3067 H   0  0  0  0  0  0  0  0  0  0  0  0
    1.1464   26.8950    4.2288 H   0  0  0  0  0  0  0  0  0  0  0  0
    5.6028   25.3323    3.0249 H   0  0  0  0  0  0  0  0  0  0  0  0
    4.3403   24.3332    3.9299 H   0  0  0  0  0  0  0  0  0  0  0  0
    4.4363   27.0913    2.8121 H   0  0  0  0  0  0  0  0  0  0  0  0
    0.6106   26.5645    4.5763 H   0  0  0  0  0  0  0  0  0  0  0  0
   -0.3024   25.7688    5.2700 H   0  0  0  0  0  0  0  0  0  0  0  0
    1.6918   22.0062    5.8998 H   0  0  0  0  0  0  0  0  0  0  0  0
   -2.4156   21.9921    7.5973 H   0  0  0  0  0  0  0  0  0  0  0  0
   -0.5601   21.6238    6.9866 H   0  0  0  0  0  0  0  0  0  0  0  0
   -2.5302   23.8553    6.9142 H   0  0  0  0  0  0  0  0  0  0  0  0
   -2.4143   25.9465    6.0600 H   0  0  0  0  0  0  0  0  0  0  0  0
   -2.6614   23.9775    6.1772 H   0  0  0  0  0  0  0  0  0  0  0  0
   -0.4274   25.9379    5.9990 H   0  0  0  0  0  0  0  0  0  0  0  0
    1.4205   21.3479    6.2786 H   0  0  0  0  0  0  0  0  0  0  0  0
   -0.3012   21.5905    6.9013 H   0  0  0  0  0  0  0  0  0  0  0  0
    1.7549   23.1182    5.4386 H   0  0  0  0  0  0  0  0  0  0  0  0
    0.5418   33.7732    1.7850 H   0  0  0  0  0  0  0  0  0  0  0  0
   -0.1170   32.1268    2.6832 H   0  0  0  0  0  0  0  0  0  0  0  0
    2.4417   32.9339    1.3535 H   0  0  0  0  0  0  0  0  0  0  0  0
  1  2  1  0
  2  3  2  3
  4  3  1  1
  4  5  1  0
  5  6  1  0
  6  7  1  0
  7  8  1  0
  8  9  1  0
  8 10  1  0
 10 11  1  0
 11 12  1  6
 11 13  1  0
 13 14  1  0
 14 15  1  0
 15 16  1  0
 15 17  1  0
 17 18  1  0
 17 19  1  0
 17 20  1  0
 10 21  1  0
 21 22  1  0
 22 23  1  6
 21  4  1  0
 22  4  1  0
 22  5  1  0
 14 11  1  0
  1 24  1  0
  1 25  1  0
  1 26  1  0
  2 27  1  0
  3 28  1  0
  5 29  1  6
  6 30  1  0
  6 31  1  0
  8 32  1  1
  9 33  1  0
 10 34  1  6
 12 35  1  0
 12 36  1  0
 12 37  1  0
 14 38  1  6
 15 39  1  1
 16 40  1  0
 18 41  1  0
 18 42  1  0
 18 43  1  0
 19 44  1  0
 19 45  1  0
 19 46  1  0
 20 47  1  0
 20 48  1  0
 20 49  1  0
 23 50  1  0
 23 51  1  0
 23 52  1  0
M  RAD  2   7   2   9   2
M  END
