
     RDKit          2D

 57 61  0  0  0  0  0  0  0  0999 V2000
   17.1315  -22.0780   -7.7770 C   0  0  0  0  0  0  0  0  0  0  0  0
   17.0580  -23.2242   -6.8121 C   0  0  0  0  0  0  0  0  0  0  0  0
   17.2877  -24.5808   -6.2149 C   0  0  0  0  0  0  0  0  0  0  0  0
   16.6699  -24.9333   -4.8943 C   0  0  0  0  0  0  0  0  0  0  0  0
   15.8224  -23.9292   -4.1709 C   0  0  0  0  0  0  0  0  0  0  0  0
   15.5926  -22.5724   -4.7681 C   0  0  0  0  0  0  0  0  0  0  0  0
   15.3629  -21.2158   -5.3653 C   0  0  0  0  0  0  0  0  0  0  0  0
   16.2104  -22.2199   -6.0887 C   0  0  0  0  0  0  0  0  0  0  0  0
   16.4345  -21.2331   -7.1959 C   0  0  0  0  0  0  0  0  0  0  0  0
   16.6586  -20.2463   -8.3032 C   0  0  0  0  0  0  0  0  0  0  0  0
   16.8826  -19.2595   -9.4105 C   0  0  0  0  0  0  0  0  0  0  0  0
   17.7287  -19.6358  -10.5906 C   0  0  0  0  0  0  0  0  0  0  0  0
   17.9527  -18.6490  -11.6979 C   0  0  0  0  0  0  0  0  0  0  0  0
   18.8263  -19.4666  -12.6026 C   0  0  0  0  0  0  0  0  0  0  0  0
   19.3266  -18.8828  -13.8905 C   0  0  0  0  0  0  0  0  0  0  0  0
   20.1223  -20.0430  -14.4107 C   0  0  0  0  0  0  0  0  0  0  0  0
   20.9180  -21.2034  -14.9309 C   0  0  0  0  0  0  0  0  0  0  0  0
   20.4285  -21.7825  -13.6365 C   0  0  0  0  0  0  0  0  0  0  0  0
   20.8088  -23.1808  -13.2492 C   0  0  0  0  0  0  0  0  0  0  0  0
   21.6784  -24.0001  -14.1560 C   0  0  0  0  0  0  0  0  0  0  0  0
   22.1679  -23.4211  -15.4503 C   0  0  0  0  0  0  0  0  0  0  0  0
   21.7877  -22.0227  -15.8377 C   0  0  0  0  0  0  0  0  0  0  0  0
   21.6987  -20.7561  -16.6364 F   0  0  0  0  0  0  0  0  0  0  0  0
   18.4531  -18.0651  -12.9858 C   0  0  0  0  0  0  0  0  0  0  0  0
   17.3109  -21.0399   -8.8448 H   0  0  0  0  0  0  0  0  0  0  0  0
   16.6905  -21.5090   -7.4345 H   0  0  0  0  0  0  0  0  0  0  0  0
   18.0050  -22.8955   -8.6816 H   0  0  0  0  0  0  0  0  0  0  0  0
   17.9310  -23.8302   -7.8706 H   0  0  0  0  0  0  0  0  0  0  0  0
   18.0809  -24.7157   -7.4808 H   0  0  0  0  0  0  0  0  0  0  0  0
   17.7929  -25.9843   -6.0573 H   0  0  0  0  0  0  0  0  0  0  0  0
   17.3897  -26.2144   -5.1954 H   0  0  0  0  0  0  0  0  0  0  0  0
   16.3020  -25.7307   -3.6783 H   0  0  0  0  0  0  0  0  0  0  0  0
   15.7488  -25.0753   -3.2060 H   0  0  0  0  0  0  0  0  0  0  0  0
   14.9493  -23.3230   -3.1123 H   0  0  0  0  0  0  0  0  0  0  0  0
   14.7466  -22.1962   -3.5880 H   0  0  0  0  0  0  0  0  0  0  0  0
   14.4899  -20.6097   -4.3068 H   0  0  0  0  0  0  0  0  0  0  0  0
   15.3294  -19.9785   -6.2126 H   0  0  0  0  0  0  0  0  0  0  0  0
   17.3110  -21.9688   -8.1659 H   0  0  0  0  0  0  0  0  0  0  0  0
   15.6207  -20.1161   -6.6129 H   0  0  0  0  0  0  0  0  0  0  0  0
   17.5265  -21.1230   -9.1565 H   0  0  0  0  0  0  0  0  0  0  0  0
   15.8117  -19.2419   -7.5795 H   0  0  0  0  0  0  0  0  0  0  0  0
   16.2607  -17.8965   -9.3376 H   0  0  0  0  0  0  0  0  0  0  0  0
   18.3506  -20.9988  -10.6635 H   0  0  0  0  0  0  0  0  0  0  0  0
   17.1571  -17.4887  -11.1777 H   0  0  0  0  0  0  0  0  0  0  0  0
   19.1993  -20.8680  -12.2194 H   0  0  0  0  0  0  0  0  0  0  0  0
   19.5507  -17.8960  -14.9978 H   0  0  0  0  0  0  0  0  0  0  0  0
   20.3849  -19.1125  -15.5575 H   0  0  0  0  0  0  0  0  0  0  0  0
   19.7601  -20.8381  -13.1914 H   0  0  0  0  0  0  0  0  0  0  0  0
   21.1311  -20.2214  -16.0445 H   0  0  0  0  0  0  0  0  0  0  0  0
   19.7218  -21.8887  -12.3177 H   0  0  0  0  0  0  0  0  0  0  0  0
   19.7335  -20.4736  -13.4047 H   0  0  0  0  0  0  0  0  0  0  0  0
   20.3193  -23.7599  -11.9548 H   0  0  0  0  0  0  0  0  0  0  0  0
   22.0586  -25.3985  -13.7686 H   0  0  0  0  0  0  0  0  0  0  0  0
   22.8746  -23.3149  -16.7691 H   0  0  0  0  0  0  0  0  0  0  0  0
   22.7936  -24.7826  -15.5209 H   0  0  0  0  0  0  0  0  0  0  0  0
   22.6264  -22.4021  -17.0219 H   0  0  0  0  0  0  0  0  0  0  0  0
   18.0800  -16.6638  -13.3689 H   0  0  0  0  0  0  0  0  0  0  0  0
  1  2  1  0
  2  3  1  0
  3  4  1  0
  4  5  1  0
  5  6  1  0
  6  7  1  0
  7  8  1  0
  8  9  1  6
  9 10  1  0
 10 11  1  0
 11 12  2  3
 12 13  1  0
 13 14  1  0
 14 15  1  0
 15 16  1  0
 16 17  1  0
 17 18  1  0
 18 19  1  0
 19 20  2  0
 20 21  1  0
 21 22  1  0
 22 23  1  0
 15 24  1  0
  8  2  1  0
 24 13  1  0
  8  6  1  0
 24 14  1  0
 22 17  1  0
  1 25  1  0
  1 26  1  0
  1 27  1  0
  2 28  1  6
  3 29  1  0
  3 30  1  0
  4 31  1  0
  4 32  1  0
  5 33  1  0
  5 34  1  0
  6 35  1  6
  7 36  1  0
  7 37  1  0
  9 38  1  0
  9 39  1  0
 10 40  1  0
 10 41  1  0
 11 42  1  0
 12 43  1  0
 13 44  1  6
 14 45  1  1
 15 46  1  6
 16 47  1  0
 16 48  1  0
 17 49  1  6
 18 50  1  0
 18 51  1  0
 19 52  1  0
 20 53  1  0
 21 54  1  0
 21 55  1  0
 22 56  1  1
 24 57  1  1
M  END
