
     RDKit          2D

 36 38  0  0  0  0  0  0  0  0999 V2000
   20.0493  -20.3600   -9.5818 C   0  0  0  0  0  0  0  0  0  0  0  0
   19.8597  -21.5620   -8.7048 C   0  0  0  0  0  0  0  0  0  0  0  0
   18.5252  -21.8262   -8.0729 C   0  0  0  0  0  0  0  0  0  0  0  0
   17.3805  -20.8884   -8.3179 N   0  0  0  0  0  0  0  0  0  0  0  0
   18.3354  -23.0282   -7.1958 C   0  0  0  0  0  0  0  0  0  0  0  0
   18.1457  -24.2303   -6.3189 C   0  0  0  0  0  0  0  0  0  0  0  0
   17.9560  -25.4323   -5.4418 C   0  0  0  0  0  0  0  0  0  0  0  0
   19.3877  -25.8206   -5.6643 C   0  0  0  0  0  0  0  0  0  0  0  0
   16.5243  -25.0440   -5.2193 C   0  0  0  0  0  0  0  0  0  0  0  0
   16.7140  -23.8419   -6.0964 C   0  0  0  0  0  0  0  0  0  0  0  0
   15.2823  -23.4537   -5.8739 N   0  0  0  0  0  0  0  0  0  0  0  0
   14.7307  -22.2189   -6.5227 C   0  0  0  0  0  0  0  0  0  0  0  0
   15.6107  -21.3724   -7.3940 O   0  0  0  0  0  0  0  0  0  0  0  0
   13.2989  -21.8306   -6.3002 C   0  0  0  0  0  0  0  0  0  0  0  0
   13.2370  -20.5798   -7.1259 C   0  0  0  0  0  0  0  0  0  0  0  0
   11.9564  -19.8039   -7.2169 N   0  0  0  0  0  0  0  0  0  0  0  0
   12.0184  -21.0547   -6.3913 C   0  0  0  0  0  0  0  0  0  0  0  0
   21.3838  -20.0958  -10.2138 H   0  0  0  0  0  0  0  0  0  0  0  0
   18.9046  -19.4222   -9.8269 H   0  0  0  0  0  0  0  0  0  0  0  0
   21.0044  -22.4999   -8.4598 H   0  0  0  0  0  0  0  0  0  0  0  0
   17.5701  -19.6864   -9.1949 H   0  0  0  0  0  0  0  0  0  0  0  0
   17.5101  -22.7141   -7.1284 H   0  0  0  0  0  0  0  0  0  0  0  0
   19.7670  -23.4168   -7.4186 H   0  0  0  0  0  0  0  0  0  0  0  0
   18.9984  -24.3713   -6.5123 H   0  0  0  0  0  0  0  0  0  0  0  0
   17.7662  -26.6343   -4.5648 H   0  0  0  0  0  0  0  0  0  0  0  0
   20.8193  -26.2089   -5.8867 H   0  0  0  0  0  0  0  0  0  0  0  0
   19.1978  -27.0230   -4.7878 H   0  0  0  0  0  0  0  0  0  0  0  0
   19.6020  -25.1439   -6.1940 H   0  0  0  0  0  0  0  0  0  0  0  0
   16.3346  -26.2460   -4.3423 H   0  0  0  0  0  0  0  0  0  0  0  0
   15.0801  -24.8051   -4.8916 H   0  0  0  0  0  0  0  0  0  0  0  0
   16.7222  -23.1096   -6.5943 H   0  0  0  0  0  0  0  0  0  0  0  0
   14.2693  -24.1796   -5.0391 H   0  0  0  0  0  0  0  0  0  0  0  0
   12.8637  -22.9465   -5.3973 H   0  0  0  0  0  0  0  0  0  0  0  0
   14.4555  -20.1048   -7.8604 H   0  0  0  0  0  0  0  0  0  0  0  0
   11.1814  -18.6338   -7.7463 H   0  0  0  0  0  0  0  0  0  0  0  0
   10.7998  -21.5296   -5.6568 H   0  0  0  0  0  0  0  0  0  0  0  0
  1  2  2  3
  2  3  1  0
  3  4  2  3
  3  5  1  0
  5  6  1  0
  6  7  1  0
  7  8  1  0
  7  9  1  0
  9 10  1  0
 10 11  1  0
 11 12  1  0
 12 13  2  0
 12 14  1  0
 14 15  1  0
 15 16  1  0
 16 17  1  0
 10  6  1  0
 17 14  1  0
 17 15  1  0
  1 18  1  0
  1 19  1  0
  2 20  1  0
  4 21  1  0
  5 22  1  0
  5 23  1  0
  6 24  1  0
  7 25  1  0
  8 26  1  0
  8 27  1  0
  8 28  1  0
  9 29  1  0
  9 30  1  0
 10 31  1  0
 11 32  1  0
 14 33  1  0
 15 34  1  0
 16 35  1  0
 17 36  1  0
M  END
