
     RDKit          2D

 41 46  0  0  0  0  0  0  0  0999 V2000
   16.1317  -22.4285   -4.5046 C   0  0  0  0  0  0  0  0  0  0  0  0
   14.9992  -23.0955   -3.7817 C   0  0  0  0  0  0  0  0  0  0  0  0
   15.1953  -23.3329   -5.2497 C   0  0  0  0  0  0  0  0  0  0  0  0
   15.7882  -23.2457   -6.6248 C   0  0  0  0  0  0  0  0  0  0  0  0
   16.3810  -23.1585   -7.9999 C   0  0  0  0  0  0  0  0  0  0  0  0
   16.9737  -23.0714   -9.3751 C   0  0  0  0  0  0  0  0  0  0  0  0
   18.1159  -22.1367   -9.1077 C   0  0  0  0  0  0  0  0  0  0  0  0
   19.3165  -21.2383   -9.1462 C   0  0  0  0  0  0  0  0  0  0  0  0
   19.8342  -21.2165  -10.5539 C   0  0  0  0  0  0  0  0  0  0  0  0
   18.9536  -22.1015  -11.3853 C   0  0  0  0  0  0  0  0  0  0  0  0
   18.9815  -22.4629  -12.8408 C   0  0  0  0  0  0  0  0  0  0  0  0
   20.1781  -21.6734  -13.2824 C   0  0  0  0  0  0  0  0  0  0  0  0
   21.3746  -20.8840  -13.7239 C   0  0  0  0  0  0  0  0  0  0  0  0
   22.4365  -20.3153  -14.6178 C   0  0  0  0  0  0  0  0  0  0  0  0
   21.4025  -21.2455  -15.1795 C   0  0  0  0  0  0  0  0  0  0  0  0
   17.9195  -23.0316  -11.9471 C   0  0  0  0  0  0  0  0  0  0  0  0
   17.8916  -22.6702  -10.4915 C   0  0  0  0  0  0  0  0  0  0  0  0
   16.7492  -21.6634   -3.3718 H   0  0  0  0  0  0  0  0  0  0  0  0
   17.0383  -21.9770   -5.3971 H   0  0  0  0  0  0  0  0  0  0  0  0
   13.7889  -23.9477   -3.5394 H   0  0  0  0  0  0  0  0  0  0  0  0
   15.2234  -22.5621   -2.3978 H   0  0  0  0  0  0  0  0  0  0  0  0
   14.0531  -24.2676   -5.5173 H   0  0  0  0  0  0  0  0  0  0  0  0
   14.7310  -24.1770   -7.1397 H   0  0  0  0  0  0  0  0  0  0  0  0
   16.7976  -22.4042   -6.3158 H   0  0  0  0  0  0  0  0  0  0  0  0
   17.2564  -22.3310   -7.3907 H   0  0  0  0  0  0  0  0  0  0  0  0
   15.3281  -24.0957   -8.5131 H   0  0  0  0  0  0  0  0  0  0  0  0
   16.0373  -23.9759  -10.1202 H   0  0  0  0  0  0  0  0  0  0  0  0
   17.9960  -21.8805   -7.7877 H   0  0  0  0  0  0  0  0  0  0  0  0
   19.0376  -21.0647   -7.6827 H   0  0  0  0  0  0  0  0  0  0  0  0
   20.4587  -20.3036   -8.8788 H   0  0  0  0  0  0  0  0  0  0  0  0
   20.8682  -20.2863   -9.9921 H   0  0  0  0  0  0  0  0  0  0  0  0
   20.4507  -20.9790  -11.4252 H   0  0  0  0  0  0  0  0  0  0  0  0
   18.5938  -23.0986  -14.1430 H   0  0  0  0  0  0  0  0  0  0  0  0
   19.8833  -22.2118  -14.4849 H   0  0  0  0  0  0  0  0  0  0  0  0
   20.4168  -21.2374  -12.3085 H   0  0  0  0  0  0  0  0  0  0  0  0
   21.7623  -20.2483  -12.4217 H   0  0  0  0  0  0  0  0  0  0  0  0
   23.1930  -19.4822  -13.6260 H   0  0  0  0  0  0  0  0  0  0  0  0
   23.2357  -20.0360  -15.8560 H   0  0  0  0  0  0  0  0  0  0  0  0
   21.8426  -21.2891  -16.6128 H   0  0  0  0  0  0  0  0  0  0  0  0
   20.3684  -22.0854  -15.3975 H   0  0  0  0  0  0  0  0  0  0  0  0
   16.8855  -23.9618  -12.5088 H   0  0  0  0  0  0  0  0  0  0  0  0
  1  2  1  0
  2  3  1  0
  3  4  1  0
  4  5  1  0
  5  6  1  0
  6  7  1  0
  7  8  1  0
  8  9  1  0
  9 10  1  0
 10 11  1  0
 11 12  1  0
 12 13  1  0
 13 14  1  0
 14 15  1  0
 11 16  1  0
 16 17  1  0
  3  1  1  0
 17  6  1  0
 17  7  1  0
 16 10  1  0
 17 10  1  0
 15 13  1  0
  1 18  1  0
  1 19  1  0
  2 20  1  0
  2 21  1  0
  3 22  1  0
  4 23  1  0
  4 24  1  0
  5 25  1  0
  5 26  1  0
  6 27  1  0
  7 28  1  0
  8 29  1  0
  8 30  1  0
  9 31  1  0
  9 32  1  0
 11 33  1  0
 12 34  1  0
 12 35  1  0
 13 36  1  0
 14 37  1  0
 14 38  1  0
 15 39  1  0
 15 40  1  0
 16 41  1  0
M  END
