
     RDKit          2D

 53 53  0  0  0  0  0  0  0  0999 V2000
   -0.4529   27.4611    1.5587 C   0  0  0  0  0  0  0  0  0  0  0  0
   -0.9171   27.5419    2.9828 C   0  0  0  0  0  0  0  0  0  0  0  0
   -1.3815   27.6227    4.4068 N   0  0  0  0  0  0  0  0  0  0  0  0
   -0.3953   27.4721    5.5269 C   0  0  0  0  0  0  0  0  0  0  0  0
    0.5910   27.3215    6.6471 C   0  0  0  0  0  0  0  0  0  0  0  0
    1.5773   27.1710    7.7672 C   0  0  0  0  0  0  0  0  0  0  0  0
    2.5635   27.0204    8.8873 C   0  0  0  0  0  0  0  0  0  0  0  0
    3.5497   26.8698   10.0073 C   0  0  0  0  0  0  0  0  0  0  0  0
    3.6688   26.8390    7.8896 C   0  0  0  0  0  0  0  0  0  0  0  0
    4.7742   26.6575    6.8920 N   0  0  0  0  0  0  0  0  0  0  0  0
    6.1802   26.4319    7.3632 C   0  0  0  0  0  0  0  0  0  0  0  0
   -2.8321   27.8541    4.7108 C   0  0  0  0  0  0  0  0  0  0  0  0
   -4.2826   28.0854    5.0147 N   0  0  0  0  0  0  0  0  0  0  0  0
   -5.2689   28.2360    3.8946 S   0  0  0  0  0  0  0  0  0  0  0  0
   -2.5301   27.8172    6.1796 N   0  0  0  0  0  0  0  0  0  0  0  0
   -3.6353   27.9997    7.1773 C   0  0  0  0  0  0  0  0  0  0  0  0
   -2.6486   27.8515    8.2973 N   0  0  0  0  0  0  0  0  0  0  0  0
   -4.7405   28.1822    8.1749 C   0  0  0  0  0  0  0  0  0  0  0  0
   -5.8457   28.3647    9.1725 C   0  0  0  0  0  0  0  0  0  0  0  0
   -5.0659   28.2507   10.4488 C   0  0  0  0  0  0  0  0  0  0  0  0
   -6.5468   28.4856   10.4931 N   0  0  0  0  0  0  0  0  0  0  0  0
    0.0114   27.3804    0.1347 H   0  0  0  0  0  0  0  0  0  0  0  0
   -1.8597   27.6825    1.0875 H   0  0  0  0  0  0  0  0  0  0  0  0
    0.9538   27.2398    2.0300 H   0  0  0  0  0  0  0  0  0  0  0  0
   -2.3235   27.7661    2.5115 H   0  0  0  0  0  0  0  0  0  0  0  0
    0.4891   27.3177    3.4540 H   0  0  0  0  0  0  0  0  0  0  0  0
   -0.9721   27.5671    6.1923 H   0  0  0  0  0  0  0  0  0  0  0  0
    0.7102   27.2916    4.5292 H   0  0  0  0  0  0  0  0  0  0  0  0
    1.6851   27.8214    5.7509 H   0  0  0  0  0  0  0  0  0  0  0  0
   -0.3747   26.8071    7.6730 H   0  0  0  0  0  0  0  0  0  0  0  0
    0.4729   27.3583    8.7647 H   0  0  0  0  0  0  0  0  0  0  0  0
    2.1536   27.0720    7.1018 H   0  0  0  0  0  0  0  0  0  0  0  0
    1.4582   27.2018    9.8849 H   0  0  0  0  0  0  0  0  0  0  0  0
    4.5360   26.7192   11.1275 H   0  0  0  0  0  0  0  0  0  0  0  0
    2.4440   27.0488   11.0050 H   0  0  0  0  0  0  0  0  0  0  0  0
    4.2688   26.7541    9.5033 H   0  0  0  0  0  0  0  0  0  0  0  0
    4.3419   26.9880    8.4459 H   0  0  0  0  0  0  0  0  0  0  0  0
    3.1550   26.6638    7.1898 H   0  0  0  0  0  0  0  0  0  0  0  0
    4.4735   26.7017    5.4231 H   0  0  0  0  0  0  0  0  0  0  0  0
    7.5863   26.2063    7.8345 H   0  0  0  0  0  0  0  0  0  0  0  0
    5.9233   24.9553    7.4228 H   0  0  0  0  0  0  0  0  0  0  0  0
    6.4372   27.9085    7.3036 H   0  0  0  0  0  0  0  0  0  0  0  0
   -3.1339   27.8909    3.2419 H   0  0  0  0  0  0  0  0  0  0  0  0
   -1.7389   27.6947    6.5583 H   0  0  0  0  0  0  0  0  0  0  0  0
   -4.6220   28.1478    6.0572 H   0  0  0  0  0  0  0  0  0  0  0  0
   -1.1728   27.6137    8.1748 H   0  0  0  0  0  0  0  0  0  0  0  0
   -2.9370   27.9111    9.7682 H   0  0  0  0  0  0  0  0  0  0  0  0
   -5.5853   28.3061    6.9416 H   0  0  0  0  0  0  0  0  0  0  0  0
   -3.8958   28.0583    9.4082 H   0  0  0  0  0  0  0  0  0  0  0  0
   -7.0093   28.5421    8.2427 H   0  0  0  0  0  0  0  0  0  0  0  0
   -4.7640   28.2138   11.9176 H   0  0  0  0  0  0  0  0  0  0  0  0
   -3.6332   28.0209   10.0684 H   0  0  0  0  0  0  0  0  0  0  0  0
   -7.8064   28.6910   11.2810 H   0  0  0  0  0  0  0  0  0  0  0  0
  1  2  1  0
  2  3  1  0
  3  4  1  0
  4  5  1  0
  5  6  1  0
  6  7  1  0
  7  8  1  0
  7  9  1  0
  9 10  1  0
 10 11  1  0
  3 12  1  0
 12 13  1  0
 13 14  2  0
 12 15  1  0
 15 16  1  0
 16 17  1  0
 16 18  1  0
 18 19  1  0
 19 20  1  0
 20 21  1  0
 21 19  1  0
  1 22  1  0
  1 23  1  0
  1 24  1  0
  2 25  1  0
  2 26  1  0
  4 27  1  0
  4 28  1  0
  5 29  1  0
  5 30  1  0
  6 31  1  0
  6 32  1  0
  7 33  1  0
  8 34  1  0
  8 35  1  0
  8 36  1  0
  9 37  1  0
  9 38  1  0
 10 39  1  0
 11 40  1  0
 11 41  1  0
 11 42  1  0
 12 43  1  0
 15 44  1  0
 16 45  1  0
 17 46  1  0
 17 47  1  0
 18 48  1  0
 18 49  1  0
 19 50  1  0
 20 51  1  0
 20 52  1  0
 21 53  1  0
M  END
