
     RDKit          2D

 40 43  0  0  0  0  0  0  0  0999 V2000
      -nan      -nan      -nan F   0  0  0  0  0  0  0  0  0  0  0  0
      -nan      -nan      -nan C   0  0  0  0  0  0  0  0  0  0  0  0
      -nan      -nan      -nan C   0  0  0  0  0  0  0  0  0  0  0  0
      -nan      -nan      -nan C   0  0  0  0  0  0  0  0  0  0  0  0
      -nan      -nan      -nan C   0  0  0  0  0  0  0  0  0  0  0  0
      -nan      -nan      -nan C   0  0  0  0  0  0  0  0  0  0  0  0
      -nan      -nan      -nan C   0  0  0  0  0  0  0  0  0  0  0  0
      -nan      -nan      -nan C   0  0  0  0  0  0  0  0  0  0  0  0
      -nan      -nan      -nan C   0  0  0  0  0  0  0  0  0  0  0  0
      -nan      -nan      -nan C   0  0  0  0  0  0  0  0  0  0  0  0
   17.0687  -21.3498   -2.8468 C   0  0  0  0  0  0  0  0  0  0  0  0
   17.3735  -22.5897   -2.0596 N   0  0  0  0  0  0  0  0  0  0  0  0
   18.3178  -22.9337   -0.9461 C   0  0  0  0  0  0  0  0  0  0  0  0
   19.3484  -22.1803   -0.1585 C   0  0  0  0  0  0  0  0  0  0  0  0
   19.8616  -20.7708   -0.1582 N   0  0  0  0  0  0  0  0  0  0  0  0
   19.5567  -19.5310   -0.9454 O   0  0  0  0  0  0  0  0  0  0  0  0
   18.6124  -19.1870   -2.0590 C   0  0  0  0  0  0  0  0  0  0  0  0
   17.5818  -19.9404   -2.8465 N   0  0  0  0  0  0  0  0  0  0  0  0
      -nan      -nan      -nan H   0  0  0  0  0  0  0  0  0  0  0  0
      -nan      -nan      -nan H   0  0  0  0  0  0  0  0  0  0  0  0
      -nan      -nan      -nan H   0  0  0  0  0  0  0  0  0  0  0  0
      -nan      -nan      -nan H   0  0  0  0  0  0  0  0  0  0  0  0
      -nan      -nan      -nan H   0  0  0  0  0  0  0  0  0  0  0  0
      -nan      -nan      -nan H   0  0  0  0  0  0  0  0  0  0  0  0
      -nan      -nan      -nan H   0  0  0  0  0  0  0  0  0  0  0  0
      -nan      -nan      -nan H   0  0  0  0  0  0  0  0  0  0  0  0
      -nan      -nan      -nan H   0  0  0  0  0  0  0  0  0  0  0  0
      -nan      -nan      -nan H   0  0  0  0  0  0  0  0  0  0  0  0
      -nan      -nan      -nan H   0  0  0  0  0  0  0  0  0  0  0  0
      -nan      -nan      -nan H   0  0  0  0  0  0  0  0  0  0  0  0
   16.2894  -20.6527   -3.9223 H   0  0  0  0  0  0  0  0  0  0  0  0
   16.7265  -23.9330   -2.2243 H   0  0  0  0  0  0  0  0  0  0  0  0
   18.7631  -24.0567   -0.0569 H   0  0  0  0  0  0  0  0  0  0  0  0
   17.5777  -24.2062   -1.2345 H   0  0  0  0  0  0  0  0  0  0  0  0
   20.3933  -22.1479    0.9172 H   0  0  0  0  0  0  0  0  0  0  0  0
   19.5069  -23.5130    0.5115 H   0  0  0  0  0  0  0  0  0  0  0  0
   20.9304  -20.5493    0.8707 H   0  0  0  0  0  0  0  0  0  0  0  0
   18.0512  -18.1843   -3.0232 H   0  0  0  0  0  0  0  0  0  0  0  0
   19.3525  -17.9145   -1.7705 H   0  0  0  0  0  0  0  0  0  0  0  0
   16.9058  -19.0832   -3.8752 H   0  0  0  0  0  0  0  0  0  0  0  0
  1  2  1  0
  2  3  1  0
  3  4  1  0
  4  5  1  0
  5  6  1  0
  6  7  1  0
  7  8  1  0
  8  9  1  0
  9 10  1  0
 10 11  1  0
 11 12  1  0
 12 13  1  0
 13 14  1  0
 14 15  1  0
 15 16  1  0
 16 17  1  0
 17 18  1  0
  4  2  1  0
  9  5  1  0
 18 11  1  0
  9  7  1  0
  2 19  1  0
  3 20  1  0
  3 21  1  0
  4 22  1  0
  5 23  1  0
  6 24  1  0
  6 25  1  0
  7 26  1  0
  8 27  1  0
  8 28  1  0
 10 29  1  0
 10 30  1  0
 11 31  1  0
 12 32  1  0
 13 33  1  0
 13 34  1  0
 14 35  1  0
 14 36  1  0
 15 37  1  0
 17 38  1  0
 17 39  1  0
 18 40  1  0
M  END
