
     RDKit          2D

 67 67  0  0  0  0  0  0  0  0999 V2000
    4.4363   25.5400    8.2945 C   0  0  0  0  0  0  0  0  0  0  0  0
    4.1108   26.3099    7.0489 C   0  0  0  0  0  0  0  0  0  0  0  0
    3.7853   27.0797    5.8034 C   0  0  0  0  0  0  0  0  0  0  0  0
    3.4599   27.8495    4.5579 C   0  0  0  0  0  0  0  0  0  0  0  0
    2.3327   27.0708    6.1775 C   0  0  0  0  0  0  0  0  0  0  0  0
    0.8803   27.0620    6.5516 C   0  0  0  0  0  0  0  0  0  0  0  0
   -0.5723   27.0531    6.9257 C   0  0  0  0  0  0  0  0  0  0  0  0
   -2.0249   27.0442    7.2999 C   0  0  0  0  0  0  0  0  0  0  0  0
   -0.2467   26.2843    8.1719 C   0  0  0  0  0  0  0  0  0  0  0  0
    0.0790   25.5155    9.4180 N   0  0  0  0  0  0  0  0  0  0  0  0
   -1.0163   25.1220   10.3644 C   0  0  0  0  0  0  0  0  0  0  0  0
   -2.1116   24.7286   11.3106 C   0  0  0  0  0  0  0  0  0  0  0  0
   -3.2070   24.3351   12.2569 C   0  0  0  0  0  0  0  0  0  0  0  0
   -2.1987   23.6728   13.1486 N   0  0  0  0  0  0  0  0  0  0  0  0
   -1.1034   24.0663   12.2022 C   0  0  0  0  0  0  0  0  0  0  0  0
    0.5545   27.8303    5.3052 C   0  0  0  0  0  0  0  0  0  0  0  0
    0.2288   28.5986    4.0587 C   0  0  0  0  0  0  0  0  0  0  0  0
   -0.0969   29.3669    2.8123 C   0  0  0  0  0  0  0  0  0  0  0  0
   -0.4226   30.1353    1.5658 O   0  0  0  0  0  0  0  0  0  0  0  0
    2.0032   28.1850    5.1452 C   0  0  0  0  0  0  0  0  0  0  0  0
    3.4519   28.5397    4.9854 C   0  0  0  0  0  0  0  0  0  0  0  0
    1.6773   28.9541    3.8993 C   0  0  0  0  0  0  0  0  0  0  0  0
    1.3515   29.7232    2.6534 C   0  0  0  0  0  0  0  0  0  0  0  0
    3.1393   29.1955    3.6661 N   0  0  0  0  0  0  0  0  0  0  0  0
    4.7617   24.7702    9.5401 H   0  0  0  0  0  0  0  0  0  0  0  0
    5.8889   25.5490    7.9204 H   0  0  0  0  0  0  0  0  0  0  0  0
    2.9837   25.5311    8.6686 H   0  0  0  0  0  0  0  0  0  0  0  0
    2.7072   26.1963    7.5657 H   0  0  0  0  0  0  0  0  0  0  0  0
    5.5649   26.3297    6.6813 H   0  0  0  0  0  0  0  0  0  0  0  0
    5.2379   27.0885    5.4293 H   0  0  0  0  0  0  0  0  0  0  0  0
    3.6767   28.5713    3.2609 H   0  0  0  0  0  0  0  0  0  0  0  0
    4.9412   27.7643    4.3383 H   0  0  0  0  0  0  0  0  0  0  0  0
    4.8620   27.9519    4.0346 H   0  0  0  0  0  0  0  0  0  0  0  0
    2.3697   27.8286    4.8835 H   0  0  0  0  0  0  0  0  0  0  0  0
    2.4775   26.2968    7.4542 H   0  0  0  0  0  0  0  0  0  0  0  0
    1.2059   26.2937    7.7981 H   0  0  0  0  0  0  0  0  0  0  0  0
   -0.8981   27.8219    5.6797 H   0  0  0  0  0  0  0  0  0  0  0  0
   -3.4775   27.0354    7.6741 H   0  0  0  0  0  0  0  0  0  0  0  0
   -2.3506   27.8134    6.0540 H   0  0  0  0  0  0  0  0  0  0  0  0
   -1.8788   26.2798    8.5822 H   0  0  0  0  0  0  0  0  0  0  0  0
   -1.4065   26.7658    8.9922 H   0  0  0  0  0  0  0  0  0  0  0  0
    1.0048   25.5359    7.8200 H   0  0  0  0  0  0  0  0  0  0  0  0
    0.8375   24.7875   10.4880 H   0  0  0  0  0  0  0  0  0  0  0  0
   -2.0250   25.7811    9.4709 H   0  0  0  0  0  0  0  0  0  0  0  0
   -0.0077   24.4630   11.2578 H   0  0  0  0  0  0  0  0  0  0  0  0
   -3.1199   25.3908   10.4190 H   0  0  0  0  0  0  0  0  0  0  0  0
   -4.2151   24.9973   11.3653 H   0  0  0  0  0  0  0  0  0  0  0  0
   -4.3022   23.9416   13.2033 H   0  0  0  0  0  0  0  0  0  0  0  0
   -2.2603   22.9263   14.4482 H   0  0  0  0  0  0  0  0  0  0  0  0
   -0.0952   23.4041   13.0939 H   0  0  0  0  0  0  0  0  0  0  0  0
   -0.0081   24.4598   11.2559 H   0  0  0  0  0  0  0  0  0  0  0  0
   -0.9299   27.6720    5.1587 H   0  0  0  0  0  0  0  0  0  0  0  0
    1.5474   28.7242    3.3548 H   0  0  0  0  0  0  0  0  0  0  0  0
   -1.2474   28.8449    4.1594 H   0  0  0  0  0  0  0  0  0  0  0  0
    1.2332   29.5583    2.1458 H   0  0  0  0  0  0  0  0  0  0  0  0
   -1.5490   29.3613    3.1883 H   0  0  0  0  0  0  0  0  0  0  0  0
    0.5414   30.6043    0.5167 H   0  0  0  0  0  0  0  0  0  0  0  0
    2.6699   27.5246    6.3155 H   0  0  0  0  0  0  0  0  0  0  0  0
    4.9209   28.5955    5.2829 H   0  0  0  0  0  0  0  0  0  0  0  0
    3.3052   29.3455    3.7288 H   0  0  0  0  0  0  0  0  0  0  0  0
    4.1184   27.8801    6.1561 H   0  0  0  0  0  0  0  0  0  0  0  0
    0.1957   29.0044    3.6706 H   0  0  0  0  0  0  0  0  0  0  0  0
    1.2047   30.5298    1.3973 H   0  0  0  0  0  0  0  0  0  0  0  0
    2.7496   30.1690    2.3429 H   0  0  0  0  0  0  0  0  0  0  0  0
   -0.1176   29.6677    2.3561 H   0  0  0  0  0  0  0  0  0  0  0  0
    3.7589   29.9550    2.5306 H   0  0  0  0  0  0  0  0  0  0  0  0
    4.6366   29.2858    3.6745 H   0  0  0  0  0  0  0  0  0  0  0  0
  1  2  1  0
  2  3  1  0
  3  4  1  0
  3  5  1  0
  5  6  1  0
  6  7  1  0
  7  8  1  0
  7  9  1  0
  9 10  1  0
 10 11  1  0
 11 12  1  0
 12 13  1  0
 13 14  1  0
 14 15  1  0
  6 16  1  0
 16 17  1  0
 17 18  1  0
 18 19  1  0
 16 20  1  0
 20 21  1  0
 20 22  1  0
 22 23  1  0
 22 24  1  0
 15 12  1  0
  1 25  1  0
  1 26  1  0
  1 27  1  0
  2 28  1  0
  2 29  1  0
  3 30  1  0
  4 31  1  0
  4 32  1  0
  4 33  1  0
  5 34  1  0
  5 35  1  0
  6 36  1  0
  7 37  1  0
  8 38  1  0
  8 39  1  0
  8 40  1  0
  9 41  1  0
  9 42  1  0
 10 43  1  0
 11 44  1  0
 11 45  1  0
 12 46  1  0
 13 47  1  0
 13 48  1  0
 14 49  1  0
 15 50  1  0
 15 51  1  0
 16 52  1  0
 17 53  1  0
 17 54  1  0
 18 55  1  0
 18 56  1  0
 19 57  1  0
 20 58  1  0
 21 59  1  0
 21 60  1  0
 21 61  1  0
 22 62  1  0
 23 63  1  0
 23 64  1  0
 23 65  1  0
 24 66  1  0
 24 67  1  0
M  END
