
     RDKit          2D

 52 57  0  0  0  0  0  0  0  0999 V2000
   20.1848  -21.1768  -10.6123 C   0  0  0  0  0  0  0  0  0  0  0  0
   18.8906  -20.5006  -10.2690 C   0  0  0  0  0  0  0  0  0  0  0  0
   18.5292  -21.2487   -9.0200 C   0  0  0  0  0  0  0  0  0  0  0  0
   17.2657  -20.9140   -8.2844 C   0  0  0  0  0  0  0  0  0  0  0  0
   17.6270  -20.1659   -9.5333 C   0  0  0  0  0  0  0  0  0  0  0  0
   16.7248  -19.0830  -10.0465 C   0  0  0  0  0  0  0  0  0  0  0  0
   15.8225  -18.0002  -10.5597 C   0  0  0  0  0  0  0  0  0  0  0  0
   14.7107  -16.9942  -10.6022 N   0  0  0  0  0  0  0  0  0  0  0  0
   14.9056  -17.8455   -9.3827 C   0  0  0  0  0  0  0  0  0  0  0  0
   13.7860  -17.3333   -8.5259 C   0  0  0  0  0  0  0  0  0  0  0  0
   12.6663  -16.8212   -7.6690 N   0  0  0  0  0  0  0  0  0  0  0  0
   11.7641  -15.7384   -8.1823 C   0  0  0  0  0  0  0  0  0  0  0  0
   10.6523  -14.7324   -8.2248 C   0  0  0  0  0  0  0  0  0  0  0  0
   10.8473  -15.5837   -7.0052 N   0  0  0  0  0  0  0  0  0  0  0  0
   14.1890  -18.2794   -7.4338 N   0  0  0  0  0  0  0  0  0  0  0  0
   15.0987  -19.3538   -6.9159 C   0  0  0  0  0  0  0  0  0  0  0  0
   13.9772  -18.8437   -6.0602 C   0  0  0  0  0  0  0  0  0  0  0  0
   14.1793  -19.6868   -4.8362 C   0  0  0  0  0  0  0  0  0  0  0  0
   13.0050  -19.0204   -4.1832 C   0  0  0  0  0  0  0  0  0  0  0  0
   13.2070  -19.8634   -2.9591 C   0  0  0  0  0  0  0  0  0  0  0  0
   13.4092  -20.7066   -1.7350 C   0  0  0  0  0  0  0  0  0  0  0  0
   13.6113  -21.5497   -0.5110 Cl  0  0  0  0  0  0  0  0  0  0  0  0
   14.3815  -20.5300   -3.6122 C   0  0  0  0  0  0  0  0  0  0  0  0
   21.4790  -21.8529  -10.9557 H   0  0  0  0  0  0  0  0  0  0  0  0
   20.3228  -20.2989  -11.8207 H   0  0  0  0  0  0  0  0  0  0  0  0
   20.0468  -22.0546   -9.4040 H   0  0  0  0  0  0  0  0  0  0  0  0
   18.8025  -19.5177  -11.3986 H   0  0  0  0  0  0  0  0  0  0  0  0
   19.4315  -22.3316   -8.5068 H   0  0  0  0  0  0  0  0  0  0  0  0
   17.3538  -21.8969   -7.1547 H   0  0  0  0  0  0  0  0  0  0  0  0
   16.3415  -20.3467   -8.1432 H   0  0  0  0  0  0  0  0  0  0  0  0
   16.2662  -19.3270   -8.8004 H   0  0  0  0  0  0  0  0  0  0  0  0
   17.4749  -19.0737  -11.3454 H   0  0  0  0  0  0  0  0  0  0  0  0
   16.4260  -17.7788  -11.9150 H   0  0  0  0  0  0  0  0  0  0  0  0
   13.9562  -15.9219  -11.3310 H   0  0  0  0  0  0  0  0  0  0  0  0
   15.4311  -18.7717   -8.5529 H   0  0  0  0  0  0  0  0  0  0  0  0
   13.3830  -16.3873   -9.6179 H   0  0  0  0  0  0  0  0  0  0  0  0
   12.4707  -17.3349   -6.4360 H   0  0  0  0  0  0  0  0  0  0  0  0
   12.3676  -15.5171   -9.5375 H   0  0  0  0  0  0  0  0  0  0  0  0
   10.8696  -14.1617   -9.5948 H   0  0  0  0  0  0  0  0  0  0  0  0
    9.4649  -13.9246   -7.7915 H   0  0  0  0  0  0  0  0  0  0  0  0
   10.4305  -15.9858   -5.6216 H   0  0  0  0  0  0  0  0  0  0  0  0
   15.8292  -19.5609   -7.7028 H   0  0  0  0  0  0  0  0  0  0  0  0
   15.7407  -20.3022   -6.2012 H   0  0  0  0  0  0  0  0  0  0  0  0
   13.2016  -18.2638   -5.8853 H   0  0  0  0  0  0  0  0  0  0  0  0
   15.2506  -20.3747   -5.2852 H   0  0  0  0  0  0  0  0  0  0  0  0
   11.8305  -18.3538   -3.5301 H   0  0  0  0  0  0  0  0  0  0  0  0
   12.7543  -18.3510   -5.0108 H   0  0  0  0  0  0  0  0  0  0  0  0
   12.0326  -19.1969   -2.3061 H   0  0  0  0  0  0  0  0  0  0  0  0
   12.3426  -19.9284   -1.0229 H   0  0  0  0  0  0  0  0  0  0  0  0
   14.0488  -21.2233   -2.0643 H   0  0  0  0  0  0  0  0  0  0  0  0
   15.5559  -21.1965   -4.2651 H   0  0  0  0  0  0  0  0  0  0  0  0
   14.5845  -21.0721   -2.9417 H   0  0  0  0  0  0  0  0  0  0  0  0
  1  2  1  0
  2  3  1  0
  3  4  1  0
  4  5  1  0
  5  6  1  0
  6  7  1  0
  7  8  1  0
  8  9  1  0
  9 10  1  0
 10 11  1  0
 11 12  1  0
 12 13  1  0
 13 14  1  0
 10 15  1  0
 15 16  1  0
 16 17  1  0
 17 18  1  0
 18 19  1  0
 19 20  1  0
 20 21  1  0
 21 22  1  0
 20 23  1  0
  5  2  1  0
  9  7  1  0
 14 12  1  0
 17 15  1  0
 23 18  1  0
  5  3  1  0
  1 24  1  0
  1 25  1  0
  1 26  1  0
  2 27  1  0
  3 28  1  0
  4 29  1  0
  4 30  1  0
  6 31  1  0
  6 32  1  0
  7 33  1  0
  8 34  1  0
  9 35  1  0
 10 36  1  0
 11 37  1  0
 12 38  1  0
 13 39  1  0
 13 40  1  0
 14 41  1  0
 16 42  1  0
 16 43  1  0
 17 44  1  0
 18 45  1  0
 19 46  1  0
 19 47  1  0
 20 48  1  0
 21 49  1  0
 21 50  1  0
 23 51  1  0
 23 52  1  0
M  END
