
     RDKit          2D

 60 64  0  0  0  0  0  0  0  0999 V2000
   17.4213  -20.5994   -9.4897 C   0  0  0  0  0  0  0  0  0  0  0  0
   16.5673  -21.8033   -9.2223 C   0  0  0  0  0  0  0  0  0  0  0  0
   15.7133  -23.0071   -8.9549 C   0  0  0  0  0  0  0  0  0  0  0  0
   14.8593  -24.2110   -8.6875 C   0  0  0  0  0  0  0  0  0  0  0  0
   14.0054  -25.4148   -8.4202 C   0  0  0  0  0  0  0  0  0  0  0  0
   13.7340  -25.2220   -6.9575 C   0  0  0  0  0  0  0  0  0  0  0  0
   12.8888  -26.2136   -6.2144 C   0  0  0  0  0  0  0  0  0  0  0  0
   13.1602  -26.4065   -7.6771 C   0  0  0  0  0  0  0  0  0  0  0  0
   16.6933  -22.2120  -10.6600 C   0  0  0  0  0  0  0  0  0  0  0  0
   16.3341  -23.2180  -11.7130 C   0  0  0  0  0  0  0  0  0  0  0  0
   16.5574  -23.4836  -13.1724 C   0  0  0  0  0  0  0  0  0  0  0  0
   17.2588  -22.8844  -14.3552 C   0  0  0  0  0  0  0  0  0  0  0  0
   18.1100  -21.7008  -14.7080 C   0  0  0  0  0  0  0  0  0  0  0  0
   18.7129  -20.4867  -14.0658 C   0  0  0  0  0  0  0  0  0  0  0  0
   18.7852  -19.8101  -12.7290 C   0  0  0  0  0  0  0  0  0  0  0  0
   18.2932  -19.9876  -11.3232 C   0  0  0  0  0  0  0  0  0  0  0  0
   17.4670  -20.9362  -10.5060 C   0  0  0  0  0  0  0  0  0  0  0  0
   19.4866  -19.2109  -13.9118 C   0  0  0  0  0  0  0  0  0  0  0  0
   20.0895  -17.9968  -13.2697 O   0  0  0  0  0  0  0  0  0  0  0  0
   19.9786  -19.0334  -15.3176 N   0  0  0  0  0  0  0  0  0  0  0  0
   21.2919  -19.6272  -15.7333 C   0  0  0  0  0  0  0  0  0  0  0  0
   22.2867  -20.6174  -16.2622 C   0  0  0  0  0  0  0  0  0  0  0  0
   20.8311  -20.9749  -16.2039 C   0  0  0  0  0  0  0  0  0  0  0  0
   20.8821  -22.3662  -16.7621 O   0  0  0  0  0  0  0  0  0  0  0  0
   19.3578  -20.8492  -15.9517 O   0  0  0  0  0  0  0  0  0  0  0  0
   18.2802  -19.5300  -10.0969 H   0  0  0  0  0  0  0  0  0  0  0  0
   17.5464  -21.0073  -10.9277 H   0  0  0  0  0  0  0  0  0  0  0  0
   17.4666  -20.2343   -8.7825 H   0  0  0  0  0  0  0  0  0  0  0  0
   16.4413  -21.3945   -7.7846 H   0  0  0  0  0  0  0  0  0  0  0  0
   15.4907  -22.7525   -7.4935 H   0  0  0  0  0  0  0  0  0  0  0  0
   15.6989  -22.4589   -7.5587 H   0  0  0  0  0  0  0  0  0  0  0  0
   14.7343  -23.8028   -7.2495 H   0  0  0  0  0  0  0  0  0  0  0  0
   14.9844  -24.6191  -10.1255 H   0  0  0  0  0  0  0  0  0  0  0  0
   13.9801  -26.0257   -9.7898 H   0  0  0  0  0  0  0  0  0  0  0  0
   14.3079  -24.0376   -6.2380 H   0  0  0  0  0  0  0  0  0  0  0  0
   12.9140  -25.6028   -4.8447 H   0  0  0  0  0  0  0  0  0  0  0  0
   12.0348  -27.4175   -5.9470 H   0  0  0  0  0  0  0  0  0  0  0  0
   12.5863  -27.5909   -8.3965 H   0  0  0  0  0  0  0  0  0  0  0  0
   15.8685  -23.1556   -9.8358 H   0  0  0  0  0  0  0  0  0  0  0  0
   15.6298  -23.8238  -10.5352 H   0  0  0  0  0  0  0  0  0  0  0  0
   15.5582  -24.4936  -11.8585 H   0  0  0  0  0  0  0  0  0  0  0  0
   15.7065  -24.6700  -12.8277 H   0  0  0  0  0  0  0  0  0  0  0  0
   16.1936  -24.4942  -14.2194 H   0  0  0  0  0  0  0  0  0  0  0  0
   16.6594  -24.0962  -15.0050 H   0  0  0  0  0  0  0  0  0  0  0  0
   17.4772  -23.1573  -15.8139 H   0  0  0  0  0  0  0  0  0  0  0  0
   18.0426  -22.3712  -16.0482 H   0  0  0  0  0  0  0  0  0  0  0  0
   18.8085  -21.1083  -15.8958 H   0  0  0  0  0  0  0  0  0  0  0  0
   19.2864  -20.1564  -15.4119 H   0  0  0  0  0  0  0  0  0  0  0  0
   19.4574  -18.5569  -12.2518 H   0  0  0  0  0  0  0  0  0  0  0  0
   19.0648  -18.7116  -11.1608 H   0  0  0  0  0  0  0  0  0  0  0  0
   18.4737  -19.1783  -10.0732 H   0  0  0  0  0  0  0  0  0  0  0  0
   17.9139  -19.8457   -9.5780 H   0  0  0  0  0  0  0  0  0  0  0  0
   17.0683  -20.9509   -9.0601 H   0  0  0  0  0  0  0  0  0  0  0  0
   19.9684  -17.5810  -11.8335 H   0  0  0  0  0  0  0  0  0  0  0  0
   19.1574  -18.2621  -16.3079 H   0  0  0  0  0  0  0  0  0  0  0  0
   22.3447  -18.5923  -15.4678 H   0  0  0  0  0  0  0  0  0  0  0  0
   23.5491  -19.8199  -16.1196 H   0  0  0  0  0  0  0  0  0  0  0  0
   22.8432  -21.8846  -16.8406 H   0  0  0  0  0  0  0  0  0  0  0  0
   19.6196  -23.1638  -16.9047 H   0  0  0  0  0  0  0  0  0  0  0  0
   18.8013  -19.5821  -15.3733 H   0  0  0  0  0  0  0  0  0  0  0  0
  1  2  1  0
  2  3  1  0
  3  4  1  0
  4  5  1  0
  5  6  1  0
  6  7  1  0
  7  8  1  0
  2  9  1  0
  9 10  1  0
 10 11  1  0
 11 12  1  0
 12 13  1  0
 13 14  1  0
 14 15  1  0
 15 16  1  0
 16 17  1  0
 15 18  1  0
 18 19  1  0
 18 20  1  0
 20 21  1  0
 21 22  1  0
 22 23  1  0
 23 24  1  0
 23 25  1  0
  8  5  1  0
 17  9  1  0
 23 21  1  0
  8  6  1  0
 18 14  1  0
  1 26  1  0
  1 27  1  0
  1 28  1  0
  2 29  1  0
  3 30  1  0
  3 31  1  0
  4 32  1  0
  4 33  1  0
  5 34  1  0
  6 35  1  0
  7 36  1  0
  7 37  1  0
  8 38  1  0
  9 39  1  0
 10 40  1  0
 10 41  1  0
 11 42  1  0
 11 43  1  0
 12 44  1  0
 12 45  1  0
 13 46  1  0
 13 47  1  0
 14 48  1  0
 15 49  1  0
 16 50  1  0
 16 51  1  0
 17 52  1  0
 17 53  1  0
 19 54  1  0
 20 55  1  0
 21 56  1  0
 22 57  1  0
 22 58  1  0
 24 59  1  0
 25 60  1  0
M  END
