
     RDKit          2D

115120  0  0  0  0  0  0  0  0999 V2000
    5.1148   29.0663    4.0496 C   0  0  0  0  0  0  0  0  0  0  0  0
    4.3741   27.8529    4.5280 C   0  0  0  0  0  0  0  0  0  0  0  0
    3.6333   26.6394    5.0065 C   0  0  0  0  0  0  0  0  0  0  0  0
    2.8925   25.4260    5.4849 C   0  0  0  0  0  0  0  0  0  0  0  0
    2.1518   24.2126    5.9634 C   0  0  0  0  0  0  0  0  0  0  0  0
    1.4110   22.9992    6.4418 C   0  0  0  0  0  0  0  0  0  0  0  0
    0.6702   21.7858    6.9203 C   0  0  0  0  0  0  0  0  0  0  0  0
   -0.0705   20.5724    7.3987 C   0  0  0  0  0  0  0  0  0  0  0  0
   -0.8113   19.3589    7.8772 C   0  0  0  0  0  0  0  0  0  0  0  0
   -1.5520   18.1456    8.3556 C   0  0  0  0  0  0  0  0  0  0  0  0
   -1.9578   18.8828    9.5973 C   0  0  0  0  0  0  0  0  0  0  0  0
   -2.2928   16.9321    8.8340 C   0  0  0  0  0  0  0  0  0  0  0  0
   -1.5832   15.8945    9.6526 C   0  0  0  0  0  0  0  0  0  0  0  0
    2.5120   26.1534    6.7403 C   0  0  0  0  0  0  0  0  0  0  0  0
    2.1314   26.8807    7.9958 C   0  0  0  0  0  0  0  0  0  0  0  0
    1.7695   24.9406    7.2179 C   0  0  0  0  0  0  0  0  0  0  0  0
    4.0140   25.9120    3.7511 C   0  0  0  0  0  0  0  0  0  0  0  0
    4.3946   25.1846    2.4957 C   0  0  0  0  0  0  0  0  0  0  0  0
    5.1307   26.4000    2.0147 C   0  0  0  0  0  0  0  0  0  0  0  0
    4.7753   24.4572    1.2403 C   0  0  0  0  0  0  0  0  0  0  0  0
    4.3241   23.0427    1.0270 C   0  0  0  0  0  0  0  0  0  0  0  0
    4.7504   27.1272    3.2703 C   0  0  0  0  0  0  0  0  0  0  0  0
    4.9038   26.0818    2.2056 C   0  0  0  0  0  0  0  0  0  0  0  0
    5.1413   24.5873    0.6495 C   0  0  0  0  0  0  0  0  0  0  0  0
    5.0788   23.3303   -0.1666 C   0  0  0  0  0  0  0  0  0  0  0  0
    5.9679   25.2397   -0.4188 C   0  0  0  0  0  0  0  0  0  0  0  0
    6.3739   26.6547   -0.1307 C   0  0  0  0  0  0  0  0  0  0  0  0
    7.0027   28.0048   -0.3090 C   0  0  0  0  0  0  0  0  0  0  0  0
    7.1370   29.3139    0.4109 C   0  0  0  0  0  0  0  0  0  0  0  0
    6.7141   29.9694    1.6921 C   0  0  0  0  0  0  0  0  0  0  0  0
    6.7527   31.2070    2.5389 C   0  0  0  0  0  0  0  0  0  0  0  0
    5.9319   29.6646    2.9352 C   0  0  0  0  0  0  0  0  0  0  0  0
    5.2907   29.8512    4.2784 C   0  0  0  0  0  0  0  0  0  0  0  0
    4.7350   30.2450    5.6147 C   0  0  0  0  0  0  0  0  0  0  0  0
    3.9076   29.4269    6.5614 C   0  0  0  0  0  0  0  0  0  0  0  0
    4.0419   30.7360    7.2813 C   0  0  0  0  0  0  0  0  0  0  0  0
    3.0265   31.8186    7.0651 C   0  0  0  0  0  0  0  0  0  0  0  0
    5.1919   30.9624    8.2176 C   0  0  0  0  0  0  0  0  0  0  0  0
    6.3417   31.1888    9.1538 C   0  0  0  0  0  0  0  0  0  0  0  0
    3.4317   28.0131    6.4054 C   0  0  0  0  0  0  0  0  0  0  0  0
    3.6655   27.0680    5.2643 C   0  0  0  0  0  0  0  0  0  0  0  0
    3.7782   25.9763    4.2418 C   0  0  0  0  0  0  0  0  0  0  0  0
    4.4330   27.3035    3.9973 C   0  0  0  0  0  0  0  0  0  0  0  0
    5.1564   28.5421    3.5584 C   0  0  0  0  0  0  0  0  0  0  0  0
    5.5450   25.8952    0.8624 C   0  0  0  0  0  0  0  0  0  0  0  0
    5.8036   30.3592    3.7277 H   0  0  0  0  0  0  0  0  0  0  0  0
    3.1651   27.2134    6.3108 H   0  0  0  0  0  0  0  0  0  0  0  0
    3.0825   24.4266    4.3825 H   0  0  0  0  0  0  0  0  0  0  0  0
    2.5376   23.4831    4.7108 H   0  0  0  0  0  0  0  0  0  0  0  0
    1.5981   24.6268    7.2945 H   0  0  0  0  0  0  0  0  0  0  0  0
    1.8045   22.2667    5.1933 H   0  0  0  0  0  0  0  0  0  0  0  0
    0.9302   23.5783    7.7393 H   0  0  0  0  0  0  0  0  0  0  0  0
    1.0612   21.0543    5.6704 H   0  0  0  0  0  0  0  0  0  0  0  0
    0.2793   22.5172    8.1701 H   0  0  0  0  0  0  0  0  0  0  0  0
   -0.4531   21.3005    8.6530 H   0  0  0  0  0  0  0  0  0  0  0  0
    0.3121   19.8442    6.1443 H   0  0  0  0  0  0  0  0  0  0  0  0
   -0.3356   18.7819    6.5768 H   0  0  0  0  0  0  0  0  0  0  0  0
   -1.1995   20.0893    9.1285 H   0  0  0  0  0  0  0  0  0  0  0  0
   -1.1462   17.4083    7.1140 H   0  0  0  0  0  0  0  0  0  0  0  0
   -2.3636   19.6201   10.8389 H   0  0  0  0  0  0  0  0  0  0  0  0
   -2.7589   17.8778   10.3707 H   0  0  0  0  0  0  0  0  0  0  0  0
   -1.2882   20.1832    9.2649 H   0  0  0  0  0  0  0  0  0  0  0  0
   -3.7430   16.7561    8.4938 H   0  0  0  0  0  0  0  0  0  0  0  0
   -2.3238   14.6811   10.1310 H   0  0  0  0  0  0  0  0  0  0  0  0
   -0.1329   16.0704    9.9928 H   0  0  0  0  0  0  0  0  0  0  0  0
    3.0686   27.5462    6.7445 H   0  0  0  0  0  0  0  0  0  0  0  0
    1.7508   27.6081    9.2512 H   0  0  0  0  0  0  0  0  0  0  0  0
    1.3407   25.7687    8.6188 H   0  0  0  0  0  0  0  0  0  0  0  0
    2.8292   28.1701    7.6787 H   0  0  0  0  0  0  0  0  0  0  0  0
    0.9863   23.8255    7.8449 H   0  0  0  0  0  0  0  0  0  0  0  0
    1.3013   25.5147    8.5222 H   0  0  0  0  0  0  0  0  0  0  0  0
    1.9592   23.9414    6.1153 H   0  0  0  0  0  0  0  0  0  0  0  0
    3.3916   24.5570    3.9138 H   0  0  0  0  0  0  0  0  0  0  0  0
    3.6587   23.9694    2.9767 H   0  0  0  0  0  0  0  0  0  0  0  0
    5.8667   27.6153    1.5338 H   0  0  0  0  0  0  0  0  0  0  0  0
    5.7572   26.1536    0.6743 H   0  0  0  0  0  0  0  0  0  0  0  0
    5.0318   27.5175    3.0103 H   0  0  0  0  0  0  0  0  0  0  0  0
    5.6059   25.2900    0.3095 H   0  0  0  0  0  0  0  0  0  0  0  0
    4.6117   22.1728   -0.1607 H   0  0  0  0  0  0  0  0  0  0  0  0
    3.4923   22.3555    2.0690 H   0  0  0  0  0  0  0  0  0  0  0  0
    4.1744   27.4755    4.6109 H   0  0  0  0  0  0  0  0  0  0  0  0
    4.3898   24.6749    2.1263 H   0  0  0  0  0  0  0  0  0  0  0  0
    4.3147   23.9349    1.7177 H   0  0  0  0  0  0  0  0  0  0  0  0
    5.1174   22.1622   -1.1069 H   0  0  0  0  0  0  0  0  0  0  0  0
    4.2616   22.3932    0.6724 H   0  0  0  0  0  0  0  0  0  0  0  0
    5.8916   23.8246   -1.3264 H   0  0  0  0  0  0  0  0  0  0  0  0
    6.0786   24.1458   -1.4391 H   0  0  0  0  0  0  0  0  0  0  0  0
    6.9463   26.2984   -1.4706 H   0  0  0  0  0  0  0  0  0  0  0  0
    7.8316   28.7572   -1.3073 H   0  0  0  0  0  0  0  0  0  0  0  0
    7.4296   27.3567   -1.5925 H   0  0  0  0  0  0  0  0  0  0  0  0
    7.7689   30.6616    0.2248 H   0  0  0  0  0  0  0  0  0  0  0  0
    7.9209   29.6268   -0.8292 H   0  0  0  0  0  0  0  0  0  0  0  0
    7.4880   31.0970    1.0758 H   0  0  0  0  0  0  0  0  0  0  0  0
    6.7912   32.4445    3.3857 H   0  0  0  0  0  0  0  0  0  0  0  0
    7.5817   31.8952    1.4954 H   0  0  0  0  0  0  0  0  0  0  0  0
    5.9576   30.8386    3.7563 H   0  0  0  0  0  0  0  0  0  0  0  0
    6.2469   31.0617    3.3812 H   0  0  0  0  0  0  0  0  0  0  0  0
    5.8625   31.2373    4.2336 H   0  0  0  0  0  0  0  0  0  0  0  0
    5.5348   31.2807    4.8815 H   0  0  0  0  0  0  0  0  0  0  0  0
    4.7005   31.4172    6.5501 H   0  0  0  0  0  0  0  0  0  0  0  0
    3.1839   29.3634    7.8738 H   0  0  0  0  0  0  0  0  0  0  0  0
    3.1609   33.1277    7.7850 H   0  0  0  0  0  0  0  0  0  0  0  0
    1.8766   31.5921    6.1288 H   0  0  0  0  0  0  0  0  0  0  0  0
    6.0153   31.4876    7.0792 H   0  0  0  0  0  0  0  0  0  0  0  0
    4.5147   30.4687    9.4617 H   0  0  0  0  0  0  0  0  0  0  0  0
    7.4917   31.4153   10.0900 H   0  0  0  0  0  0  0  0  0  0  0  0
    7.1581   31.7335    8.0193 H   0  0  0  0  0  0  0  0  0  0  0  0
    5.6716   30.6758   10.3938 H   0  0  0  0  0  0  0  0  0  0  0  0
    2.8759   28.4067    7.7419 H   0  0  0  0  0  0  0  0  0  0  0  0
    2.6318   26.9772    7.1386 H   0  0  0  0  0  0  0  0  0  0  0  0
    2.8370   26.3630    6.2971 H   0  0  0  0  0  0  0  0  0  0  0  0
    3.0738   24.7080    4.6230 H   0  0  0  0  0  0  0  0  0  0  0  0
    3.8765   24.8690    3.2347 H   0  0  0  0  0  0  0  0  0  0  0  0
    4.9718   26.8726    2.6652 H   0  0  0  0  0  0  0  0  0  0  0  0
    6.2268   27.1933    0.5459 H   0  0  0  0  0  0  0  0  0  0  0  0
  1  2  3  0
  2  3  1  0
  3  4  1  0
  4  5  1  0
  5  6  1  0
  6  7  1  0
  7  8  1  0
  8  9  1  0
  9 10  1  0
 10 11  1  0
 10 12  1  0
 12 13  2  3
  4 14  1  0
 14 15  1  0
 14 16  1  0
  3 17  1  0
 17 18  1  0
 18 19  1  0
 18 20  1  0
 20 21  2  3
 17 22  1  0
 22 23  1  0
 23 24  1  0
 24 25  1  0
 24 26  1  0
 26 27  1  0
 27 28  1  0
 28 29  1  0
 29 30  1  0
 30 31  1  0
 30 32  1  0
 32 33  1  0
 33 34  1  0
 34 35  1  0
 35 36  1  0
 36 37  2  3
 36 38  1  0
 38 39  1  0
 35 40  1  0
 40 41  1  0
 41 42  1  0
 42 43  1  0
 43 44  1  0
 27 45  1  0
 44 22  1  0
 45 23  1  0
 45 26  1  0
 44 32  1  0
 44 33  1  0
 43 41  1  0
  1 46  1  0
  3 47  1  0
  4 48  1  0
  5 49  1  0
  5 50  1  0
  6 51  1  0
  6 52  1  0
  7 53  1  0
  7 54  1  0
  8 55  1  0
  8 56  1  0
  9 57  1  0
  9 58  1  0
 10 59  1  0
 11 60  1  0
 11 61  1  0
 11 62  1  0
 12 63  1  0
 13 64  1  0
 13 65  1  0
 14 66  1  0
 15 67  1  0
 15 68  1  0
 15 69  1  0
 16 70  1  0
 16 71  1  0
 16 72  1  0
 17 73  1  0
 18 74  1  0
 19 75  1  0
 19 76  1  0
 19 77  1  0
 20 78  1  0
 21 79  1  0
 21 80  1  0
 22 81  1  0
 23 82  1  0
 24 83  1  0
 25 84  1  0
 25 85  1  0
 25 86  1  0
 26 87  1  0
 27 88  1  0
 28 89  1  0
 28 90  1  0
 29 91  1  0
 29 92  1  0
 30 93  1  0
 31 94  1  0
 31 95  1  0
 31 96  1  0
 32 97  1  0
 33 98  1  0
 34 99  1  0
 34100  1  0
 35101  1  0
 37102  1  0
 37103  1  0
 38104  1  0
 38105  1  0
 39106  1  0
 39107  1  0
 39108  1  0
 40109  1  0
 40110  1  0
 41111  1  0
 42112  1  0
 42113  1  0
 43114  1  0
 45115  1  0
M  END
