
     RDKit          2D

 57 63  0  0  0  0  0  0  0  0999 V2000
   14.5784  -22.2329  -11.1810 C   0  0  0  0  0  0  0  0  0  0  0  0
   15.7947  -21.3980  -11.4523 C   0  0  0  0  0  0  0  0  0  0  0  0
   16.3584  -20.5214  -10.3735 C   0  0  0  0  0  0  0  0  0  0  0  0
   17.5188  -19.9181  -11.1080 C   0  0  0  0  0  0  0  0  0  0  0  0
   17.2571  -19.5409   -9.6800 C   0  0  0  0  0  0  0  0  0  0  0  0
   16.6047  -19.4993   -8.3300 C   0  0  0  0  0  0  0  0  0  0  0  0
   17.1684  -18.6226   -7.2512 C   0  0  0  0  0  0  0  0  0  0  0  0
   16.5160  -18.5809   -5.9012 C   0  0  0  0  0  0  0  0  0  0  0  0
   15.1729  -19.2172   -5.6974 C   0  0  0  0  0  0  0  0  0  0  0  0
   13.9185  -19.6729   -5.0128 C   0  0  0  0  0  0  0  0  0  0  0  0
   12.9038  -19.8933   -3.9303 C   0  0  0  0  0  0  0  0  0  0  0  0
   14.1733  -19.1533   -3.6291 C   0  0  0  0  0  0  0  0  0  0  0  0
   13.9617  -18.8546   -2.1743 C   0  0  0  0  0  0  0  0  0  0  0  0
   13.3093  -18.8129   -0.8243 C   0  0  0  0  0  0  0  0  0  0  0  0
   12.6187  -19.4909   -1.9704 C   0  0  0  0  0  0  0  0  0  0  0  0
   15.8635  -18.5392   -4.5512 C   0  0  0  0  0  0  0  0  0  0  0  0
   17.2064  -17.9030   -4.7551 C   0  0  0  0  0  0  0  0  0  0  0  0
   17.4613  -17.3833   -3.3712 O   0  0  0  0  0  0  0  0  0  0  0  0
   18.3826  -18.5749   -9.4553 N   0  0  0  0  0  0  0  0  0  0  0  0
   19.3472  -18.2761  -10.5645 C   0  0  0  0  0  0  0  0  0  0  0  0
   20.3118  -17.9773  -11.6737 C   0  0  0  0  0  0  0  0  0  0  0  0
   20.1510  -18.6445  -13.0074 C   0  0  0  0  0  0  0  0  0  0  0  0
   21.1157  -18.3456  -14.1166 C   0  0  0  0  0  0  0  0  0  0  0  0
   20.5519  -19.2223  -15.1954 C   0  0  0  0  0  0  0  0  0  0  0  0
   21.2044  -19.2640  -16.5454 C   0  0  0  0  0  0  0  0  0  0  0  0
   21.7682  -18.3873  -15.4666 C   0  0  0  0  0  0  0  0  0  0  0  0
   14.0146  -23.1096  -12.2597 H   0  0  0  0  0  0  0  0  0  0  0  0
   13.9260  -22.1913   -9.8310 H   0  0  0  0  0  0  0  0  0  0  0  0
   16.4471  -21.4397  -12.8023 H   0  0  0  0  0  0  0  0  0  0  0  0
   15.3938  -20.8202   -9.2643 H   0  0  0  0  0  0  0  0  0  0  0  0
   18.7322  -19.1540  -11.5482 H   0  0  0  0  0  0  0  0  0  0  0  0
   17.3580  -20.5852  -12.4419 H   0  0  0  0  0  0  0  0  0  0  0  0
   15.3884  -20.3342   -8.0587 H   0  0  0  0  0  0  0  0  0  0  0  0
   18.3694  -17.7292   -7.3496 H   0  0  0  0  0  0  0  0  0  0  0  0
   14.9182  -19.7368   -7.0812 H   0  0  0  0  0  0  0  0  0  0  0  0
   13.2279  -20.3509   -6.1590 H   0  0  0  0  0  0  0  0  0  0  0  0
   11.8609  -20.6477   -4.7005 H   0  0  0  0  0  0  0  0  0  0  0  0
   12.4836  -19.9204   -3.2535 H   0  0  0  0  0  0  0  0  0  0  0  0
   15.5089  -18.4711   -3.6557 H   0  0  0  0  0  0  0  0  0  0  0  0
   15.2312  -18.1146   -1.8730 H   0  0  0  0  0  0  0  0  0  0  0  0
   14.3522  -18.0585   -0.0542 H   0  0  0  0  0  0  0  0  0  0  0  0
   12.2946  -19.0333    0.2582 H   0  0  0  0  0  0  0  0  0  0  0  0
   11.3643  -19.9467   -1.2860 H   0  0  0  0  0  0  0  0  0  0  0  0
   12.3989  -19.8009   -2.6712 H   0  0  0  0  0  0  0  0  0  0  0  0
   15.3590  -18.4054   -3.1450 H   0  0  0  0  0  0  0  0  0  0  0  0
   18.4610  -17.4472   -5.4396 H   0  0  0  0  0  0  0  0  0  0  0  0
   18.7308  -16.6433   -3.0699 H   0  0  0  0  0  0  0  0  0  0  0  0
   18.6891  -17.8238   -8.1937 H   0  0  0  0  0  0  0  0  0  0  0  0
   18.7251  -19.1721  -11.5941 H   0  0  0  0  0  0  0  0  0  0  0  0
   20.0924  -17.3368   -9.6633 H   0  0  0  0  0  0  0  0  0  0  0  0
   21.4371  -17.0114  -11.4489 H   0  0  0  0  0  0  0  0  0  0  0  0
   19.0256  -19.6104  -13.2321 H   0  0  0  0  0  0  0  0  0  0  0  0
   22.0144  -17.3652  -13.4231 H   0  0  0  0  0  0  0  0  0  0  0  0
   19.3357  -20.0573  -14.9241 H   0  0  0  0  0  0  0  0  0  0  0  0
   20.3056  -20.2444  -17.2388 H   0  0  0  0  0  0  0  0  0  0  0  0
   22.1690  -18.9652  -17.6545 H   0  0  0  0  0  0  0  0  0  0  0  0
   22.9844  -17.5524  -15.7379 H   0  0  0  0  0  0  0  0  0  0  0  0
  1  2  2  3
  2  3  1  0
  3  4  1  0
  4  5  1  0
  5  6  1  0
  6  7  2  3
  8  7  1  1
  8  9  1  0
  9 10  1  0
 10 11  1  0
 11 12  1  0
 12 13  1  0
 13 14  1  0
 14 15  1  0
  9 16  1  0
 16 17  1  0
 17 18  1  0
  5 19  1  6
 19 20  1  0
 20 21  1  0
 21 22  2  3
 22 23  1  0
 23 24  1  0
 24 25  1  0
 25 26  1  0
  5  3  1  0
 16  8  1  0
 26 23  1  0
 17  8  1  0
 26 24  1  0
 12 10  1  0
 15 13  1  0
  1 27  1  0
  1 28  1  0
  2 29  1  0
  3 30  1  6
  4 31  1  0
  4 32  1  0
  6 33  1  0
  7 34  1  0
  9 35  1  6
 10 36  1  6
 11 37  1  0
 11 38  1  0
 12 39  1  1
 13 40  1  0
 14 41  1  0
 14 42  1  0
 15 43  1  0
 15 44  1  0
 16 45  1  6
 17 46  1  6
 18 47  1  0
 19 48  1  0
 20 49  1  0
 20 50  1  0
 21 51  1  0
 22 52  1  0
 23 53  1  6
 24 54  1  1
 25 55  1  0
 25 56  1  0
 26 57  1  1
M  END
