
     RDKit          2D

 53 58  0  0  0  0  0  0  0  0999 V2000
   15.6088  -22.6812   -2.9709 C   0  0  0  0  0  0  0  0  0  0  0  0
   16.2492  -22.8501   -4.3168 C   0  0  0  0  0  0  0  0  0  0  0  0
   16.8896  -23.0190   -5.6627 C   0  0  0  0  0  0  0  0  0  0  0  0
   17.5300  -23.1879   -7.0086 C   0  0  0  0  0  0  0  0  0  0  0  0
   17.9619  -24.6212   -6.9134 C   0  0  0  0  0  0  0  0  0  0  0  0
   18.2431  -23.8342   -8.1591 C   0  0  0  0  0  0  0  0  0  0  0  0
   18.9430  -24.8800   -8.9754 C   0  0  0  0  0  0  0  0  0  0  0  0
   18.2813  -22.6840   -9.1212 C   0  0  0  0  0  0  0  0  0  0  0  0
   18.3194  -21.5338  -10.0833 C   0  0  0  0  0  0  0  0  0  0  0  0
   18.3575  -20.3836  -11.0453 C   0  0  0  0  0  0  0  0  0  0  0  0
   18.3957  -19.2334  -12.0074 C   0  0  0  0  0  0  0  0  0  0  0  0
   17.6958  -18.1876  -11.1910 C   0  0  0  0  0  0  0  0  0  0  0  0
   17.8006  -19.4853  -10.4459 C   0  0  0  0  0  0  0  0  0  0  0  0
   18.4216  -20.7745  -10.8956 C   0  0  0  0  0  0  0  0  0  0  0  0
   19.0912  -21.0845  -12.2015 C   0  0  0  0  0  0  0  0  0  0  0  0
   19.9042  -20.8680  -14.2377 C   0  0  0  0  0  0  0  0  0  0  0  0
   19.6190  -19.4557  -14.6547 C   0  0  0  0  0  0  0  0  0  0  0  0
   19.3052  -20.1819  -13.3803 C   0  0  0  0  0  0  0  0  0  0  0  0
   18.9024  -18.7463  -13.5443 C   0  0  0  0  0  0  0  0  0  0  0  0
   18.1862  -17.8588  -12.5699 C   0  0  0  0  0  0  0  0  0  0  0  0
   17.4863  -16.8130  -11.7536 C   0  0  0  0  0  0  0  0  0  0  0  0
   14.9685  -22.5124   -1.6250 H   0  0  0  0  0  0  0  0  0  0  0  0
   15.2823  -21.2559   -3.3051 H   0  0  0  0  0  0  0  0  0  0  0  0
   15.9354  -24.1066   -2.6367 H   0  0  0  0  0  0  0  0  0  0  0  0
   16.5850  -24.2723   -3.9785 H   0  0  0  0  0  0  0  0  0  0  0  0
   15.9134  -21.4278   -4.6551 H   0  0  0  0  0  0  0  0  0  0  0  0
   16.5596  -21.5947   -5.9984 H   0  0  0  0  0  0  0  0  0  0  0  0
   17.1390  -24.4120   -5.1654 H   0  0  0  0  0  0  0  0  0  0  0  0
   17.2382  -21.7730   -7.4124 H   0  0  0  0  0  0  0  0  0  0  0  0
   18.5119  -25.9996   -7.1320 H   0  0  0  0  0  0  0  0  0  0  0  0
   17.5392  -25.1180   -5.5627 H   0  0  0  0  0  0  0  0  0  0  0  0
   19.6429  -25.9258   -9.7919 H   0  0  0  0  0  0  0  0  0  0  0  0
   18.8671  -25.9838   -7.9625 H   0  0  0  0  0  0  0  0  0  0  0  0
   19.1895  -24.0312  -10.1874 H   0  0  0  0  0  0  0  0  0  0  0  0
   17.7889  -21.6337   -8.1701 H   0  0  0  0  0  0  0  0  0  0  0  0
   18.7830  -23.4539  -10.3068 H   0  0  0  0  0  0  0  0  0  0  0  0
   17.2963  -21.1227   -9.0663 H   0  0  0  0  0  0  0  0  0  0  0  0
   19.3519  -22.3793  -10.7681 H   0  0  0  0  0  0  0  0  0  0  0  0
   18.5958  -21.0319  -12.3768 H   0  0  0  0  0  0  0  0  0  0  0  0
   18.1193  -19.7354   -9.7138 H   0  0  0  0  0  0  0  0  0  0  0  0
   19.1087  -20.1707  -12.9365 H   0  0  0  0  0  0  0  0  0  0  0  0
   17.0843  -18.5978   -9.4716 H   0  0  0  0  0  0  0  0  0  0  0  0
   17.4270  -20.0910   -9.1254 H   0  0  0  0  0  0  0  0  0  0  0  0
   17.9312  -21.1033   -9.5168 H   0  0  0  0  0  0  0  0  0  0  0  0
   18.8939  -22.1982  -10.9008 H   0  0  0  0  0  0  0  0  0  0  0  0
   19.6162  -22.4819  -12.3481 H   0  0  0  0  0  0  0  0  0  0  0  0
   20.5636  -21.1254  -15.5602 H   0  0  0  0  0  0  0  0  0  0  0  0
   20.1893  -22.2804  -13.8206 H   0  0  0  0  0  0  0  0  0  0  0  0
   20.2139  -19.4460  -16.0317 H   0  0  0  0  0  0  0  0  0  0  0  0
   20.0173  -21.1299  -14.2991 H   0  0  0  0  0  0  0  0  0  0  0  0
   18.9048  -17.5547  -14.4554 H   0  0  0  0  0  0  0  0  0  0  0  0
   17.5244  -15.6628  -12.7156 H   0  0  0  0  0  0  0  0  0  0  0  0
   16.7732  -16.1667  -10.6030 H   0  0  0  0  0  0  0  0  0  0  0  0
  1  2  1  0
  2  3  1  0
  3  4  1  0
  4  5  1  0
  5  6  1  0
  6  7  1  0
  6  8  1  0
  8  9  1  0
  9 10  1  0
 10 11  1  0
 11 12  1  0
 12 13  1  0
 13 14  1  0
 14 15  1  0
 15 16  1  0
 16 17  1  0
 17 18  1  0
 18 19  1  0
 19 20  1  0
 20 21  1  0
  6  4  1  0
 20 11  1  0
 20 12  1  0
 21 12  1  0
 18 15  1  0
 19 17  1  0
  1 22  1  0
  1 23  1  0
  1 24  1  0
  2 25  1  0
  2 26  1  0
  3 27  1  0
  3 28  1  0
  4 29  1  0
  5 30  1  0
  5 31  1  0
  7 32  1  0
  7 33  1  0
  7 34  1  0
  8 35  1  0
  8 36  1  0
  9 37  1  0
  9 38  1  0
 10 39  1  0
 10 40  1  0
 11 41  1  0
 13 42  1  0
 13 43  1  0
 14 44  1  0
 14 45  1  0
 15 46  1  0
 16 47  1  0
 16 48  1  0
 17 49  1  0
 18 50  1  0
 19 51  1  0
 21 52  1  0
 21 53  1  0
M  END
