
     RDKit          2D

102106  0  0  0  0  0  0  0  0999 V2000
       nan       nan       nan C   0  0  0  0  0  0  0  0  0  0  0  0
       nan       nan       nan C   0  0  0  0  0  0  0  0  0  0  0  0
       nan       nan       nan C   0  0  0  0  0  0  0  0  0  0  0  0
       nan       nan       nan C   0  0  0  0  0  0  0  0  0  0  0  0
       nan       nan       nan C   0  0  0  0  0  0  0  0  0  0  0  0
       nan       nan       nan C   0  0  0  0  0  0  0  0  0  0  0  0
       nan       nan       nan C   0  0  0  0  0  0  0  0  0  0  0  0
       nan       nan       nan C   0  0  0  0  0  0  0  0  0  0  0  0
       nan       nan       nan C   0  0  0  0  0  0  0  0  0  0  0  0
       nan       nan       nan C   0  0  0  0  0  0  0  0  0  0  0  0
       nan       nan       nan C   0  0  0  0  0  0  0  0  0  0  0  0
       nan       nan       nan C   0  0  0  0  0  0  0  0  0  0  0  0
       nan       nan       nan C   0  0  0  0  0  0  0  0  0  0  0  0
       nan       nan       nan C   0  0  0  0  0  0  0  0  0  0  0  0
       nan       nan       nan C   0  0  0  0  0  0  0  0  0  0  0  0
       nan       nan       nan C   0  0  0  0  0  0  0  0  0  0  0  0
       nan       nan       nan C   0  0  0  0  0  0  0  0  0  0  0  0
       nan       nan       nan C   0  0  0  0  0  0  0  0  0  0  0  0
       nan       nan       nan C   0  0  0  0  0  0  0  0  0  0  0  0
       nan       nan       nan C   0  0  0  0  0  0  0  0  0  0  0  0
       nan       nan       nan C   0  0  0  0  0  0  0  0  0  0  0  0
       nan       nan       nan O   0  0  0  0  0  0  0  0  0  0  0  0
       nan       nan       nan C   0  0  0  0  0  0  0  0  0  0  0  0
       nan       nan       nan C   0  0  0  0  0  0  0  0  0  0  0  0
       nan       nan       nan C   0  0  0  0  0  0  0  0  0  0  0  0
       nan       nan       nan C   0  0  0  0  0  0  0  0  0  0  0  0
       nan       nan       nan C   0  0  0  0  0  0  0  0  0  0  0  0
       nan       nan       nan C   0  0  0  0  0  0  0  0  0  0  0  0
       nan       nan       nan O   0  0  0  0  0  0  0  0  0  0  0  0
       nan       nan       nan C   0  0  0  0  0  0  0  0  0  0  0  0
       nan       nan       nan O   0  0  0  0  0  0  0  0  0  0  0  0
       nan       nan       nan C   0  0  0  0  0  0  0  0  0  0  0  0
       nan       nan       nan C   0  0  0  0  0  0  0  0  0  0  0  0
       nan       nan       nan C   0  0  0  0  0  0  0  0  0  0  0  0
       nan       nan       nan C   0  0  0  0  0  0  0  0  0  0  0  0
       nan       nan       nan C   0  0  0  0  0  0  0  0  0  0  0  0
       nan       nan       nan C   0  0  0  0  0  0  0  0  0  0  0  0
       nan       nan       nan C   0  0  0  0  0  0  0  0  0  0  0  0
       nan       nan       nan C   0  0  0  0  0  0  0  0  0  0  0  0
       nan       nan       nan C   0  0  0  0  0  0  0  0  0  0  0  0
       nan       nan       nan C   0  0  0  0  0  0  0  0  0  0  0  0
       nan       nan       nan C   0  0  0  0  0  0  0  0  0  0  0  0
       nan       nan       nan H   0  0  0  0  0  0  0  0  0  0  0  0
       nan       nan       nan H   0  0  0  0  0  0  0  0  0  0  0  0
       nan       nan       nan H   0  0  0  0  0  0  0  0  0  0  0  0
       nan       nan       nan H   0  0  0  0  0  0  0  0  0  0  0  0
       nan       nan       nan H   0  0  0  0  0  0  0  0  0  0  0  0
       nan       nan       nan H   0  0  0  0  0  0  0  0  0  0  0  0
       nan       nan       nan H   0  0  0  0  0  0  0  0  0  0  0  0
       nan       nan       nan H   0  0  0  0  0  0  0  0  0  0  0  0
       nan       nan       nan H   0  0  0  0  0  0  0  0  0  0  0  0
       nan       nan       nan H   0  0  0  0  0  0  0  0  0  0  0  0
       nan       nan       nan H   0  0  0  0  0  0  0  0  0  0  0  0
       nan       nan       nan H   0  0  0  0  0  0  0  0  0  0  0  0
       nan       nan       nan H   0  0  0  0  0  0  0  0  0  0  0  0
       nan       nan       nan H   0  0  0  0  0  0  0  0  0  0  0  0
       nan       nan       nan H   0  0  0  0  0  0  0  0  0  0  0  0
       nan       nan       nan H   0  0  0  0  0  0  0  0  0  0  0  0
       nan       nan       nan H   0  0  0  0  0  0  0  0  0  0  0  0
       nan       nan       nan H   0  0  0  0  0  0  0  0  0  0  0  0
       nan       nan       nan H   0  0  0  0  0  0  0  0  0  0  0  0
       nan       nan       nan H   0  0  0  0  0  0  0  0  0  0  0  0
       nan       nan       nan H   0  0  0  0  0  0  0  0  0  0  0  0
       nan       nan       nan H   0  0  0  0  0  0  0  0  0  0  0  0
       nan       nan       nan H   0  0  0  0  0  0  0  0  0  0  0  0
       nan       nan       nan H   0  0  0  0  0  0  0  0  0  0  0  0
       nan       nan       nan H   0  0  0  0  0  0  0  0  0  0  0  0
       nan       nan       nan H   0  0  0  0  0  0  0  0  0  0  0  0
       nan       nan       nan H   0  0  0  0  0  0  0  0  0  0  0  0
       nan       nan       nan H   0  0  0  0  0  0  0  0  0  0  0  0
       nan       nan       nan H   0  0  0  0  0  0  0  0  0  0  0  0
       nan       nan       nan H   0  0  0  0  0  0  0  0  0  0  0  0
       nan       nan       nan H   0  0  0  0  0  0  0  0  0  0  0  0
       nan       nan       nan H   0  0  0  0  0  0  0  0  0  0  0  0
       nan       nan       nan H   0  0  0  0  0  0  0  0  0  0  0  0
       nan       nan       nan H   0  0  0  0  0  0  0  0  0  0  0  0
       nan       nan       nan H   0  0  0  0  0  0  0  0  0  0  0  0
       nan       nan       nan H   0  0  0  0  0  0  0  0  0  0  0  0
       nan       nan       nan H   0  0  0  0  0  0  0  0  0  0  0  0
       nan       nan       nan H   0  0  0  0  0  0  0  0  0  0  0  0
       nan       nan       nan H   0  0  0  0  0  0  0  0  0  0  0  0
       nan       nan       nan H   0  0  0  0  0  0  0  0  0  0  0  0
       nan       nan       nan H   0  0  0  0  0  0  0  0  0  0  0  0
       nan       nan       nan H   0  0  0  0  0  0  0  0  0  0  0  0
       nan       nan       nan H   0  0  0  0  0  0  0  0  0  0  0  0
       nan       nan       nan H   0  0  0  0  0  0  0  0  0  0  0  0
       nan       nan       nan H   0  0  0  0  0  0  0  0  0  0  0  0
       nan       nan       nan H   0  0  0  0  0  0  0  0  0  0  0  0
       nan       nan       nan H   0  0  0  0  0  0  0  0  0  0  0  0
       nan       nan       nan H   0  0  0  0  0  0  0  0  0  0  0  0
       nan       nan       nan H   0  0  0  0  0  0  0  0  0  0  0  0
       nan       nan       nan H   0  0  0  0  0  0  0  0  0  0  0  0
       nan       nan       nan H   0  0  0  0  0  0  0  0  0  0  0  0
       nan       nan       nan H   0  0  0  0  0  0  0  0  0  0  0  0
       nan       nan       nan H   0  0  0  0  0  0  0  0  0  0  0  0
       nan       nan       nan H   0  0  0  0  0  0  0  0  0  0  0  0
       nan       nan       nan H   0  0  0  0  0  0  0  0  0  0  0  0
       nan       nan       nan H   0  0  0  0  0  0  0  0  0  0  0  0
       nan       nan       nan H   0  0  0  0  0  0  0  0  0  0  0  0
       nan       nan       nan H   0  0  0  0  0  0  0  0  0  0  0  0
       nan       nan       nan H   0  0  0  0  0  0  0  0  0  0  0  0
       nan       nan       nan H   0  0  0  0  0  0  0  0  0  0  0  0
  1  2  1  0
  2  3  1  0
  3  4  1  0
  4  5  1  0
  5  6  1  0
  6  7  1  0
  7  8  1  0
  8  9  2  3
  9 10  1  0
 10 11  1  0
 11 12  1  0
 12 13  1  0
 13 14  2  3
 14 15  1  0
 15 16  1  0
 16 17  1  0
 17 18  1  0
 18 19  1  0
 19 20  1  0
 19 21  1  0
 21 22  1  0
 22 23  1  0
 23 24  1  0
 24 25  1  0
 25 26  1  0
 26 27  1  0
 27 28  1  0
 28 29  1  0
 28 30  2  0
 30 31  2  0
 25 32  2  0
 32 33  1  0
 33 34  1  0
 34 35  1  0
 35 36  1  0
 36 37  1  0
 38 36  1  1
  5 39  1  0
 39 40  1  0
 40 41  1  0
 41 42  1  0
 39  4  1  0
 17 15  1  0
 38 23  1  0
 38 24  1  0
 38 34  1  0
  1 43  1  0
  1 44  1  0
  1 45  1  0
  2 46  1  0
  2 47  1  0
  3 48  1  0
  3 49  1  0
  4 50  1  6
  5 51  1  6
  6 52  1  0
  6 53  1  0
  7 54  1  0
  7 55  1  0
  8 56  1  0
  9 57  1  0
 10 58  1  0
 10 59  1  0
 11 60  1  0
 11 61  1  0
 12 62  1  0
 12 63  1  0
 13 64  1  0
 14 65  1  0
 15 66  1  1
 16 67  1  0
 16 68  1  0
 17 69  1  6
 18 70  1  0
 18 71  1  0
 19 72  1  1
 20 73  1  0
 20 74  1  0
 20 75  1  0
 21 76  1  0
 21 77  1  0
 23 78  1  6
 24 79  1  1
 26 80  1  0
 26 81  1  0
 27 82  1  0
 27 83  1  0
 29 84  1  0
 32 85  1  0
 33 86  1  0
 33 87  1  0
 34 88  1  1
 35 89  1  0
 35 90  1  0
 36 91  1  6
 37 92  1  0
 37 93  1  0
 37 94  1  0
 39 95  1  6
 40 96  1  0
 40 97  1  0
 41 98  1  0
 41 99  1  0
 42100  1  0
 42101  1  0
 42102  1  0
M  END
