
     RDKit          2D

 31 32  0  0  0  0  0  0  0  0999 V2000
    0.9393   26.8605    6.3998 C   0  0  0  0  0  0  0  0  0  0  0  0
    1.9803   25.8643    6.8172 C   0  0  0  0  0  0  0  0  0  0  0  0
    2.7212   26.7340    5.8452 C   0  0  0  0  0  0  0  0  0  0  0  0
    4.1501   26.6325    5.4005 O   0  0  0  0  0  0  0  0  0  0  0  0
    5.1911   25.6364    5.8179 C   0  0  0  0  0  0  0  0  0  0  0  0
    5.0601   24.4957    6.7832 C   0  0  0  0  0  0  0  0  0  0  0  0
    3.8559   24.0694    7.5694 C   0  0  0  0  0  0  0  0  0  0  0  0
    2.4852   24.6785    7.5845 C   0  0  0  0  0  0  0  0  0  0  0  0
    1.0563   24.7799    8.0293 C   0  0  0  0  0  0  0  0  0  0  0  0
   -0.3727   24.8814    8.4741 N   0  0  0  0  0  0  0  0  0  0  0  0
    6.6131   25.1878    5.6548 C   0  0  0  0  0  0  0  0  0  0  0  0
    6.1081   26.3736    4.8875 C   0  0  0  0  0  0  0  0  0  0  0  0
   -0.1016   27.8566    5.9824 H   0  0  0  0  0  0  0  0  0  0  0  0
    1.4268   27.3492    6.0013 H   0  0  0  0  0  0  0  0  0  0  0  0
   -0.1128   26.0561    7.1041 H   0  0  0  0  0  0  0  0  0  0  0  0
    0.6883   25.5776    7.5235 H   0  0  0  0  0  0  0  0  0  0  0  0
    2.8521   27.8747    4.8800 H   0  0  0  0  0  0  0  0  0  0  0  0
    2.0271   27.1220    5.7889 H   0  0  0  0  0  0  0  0  0  0  0  0
    5.7260   23.3391    7.4677 H   0  0  0  0  0  0  0  0  0  0  0  0
    6.5019   24.2496    6.4500 H   0  0  0  0  0  0  0  0  0  0  0  0
    3.2712   23.1059    8.5593 H   0  0  0  0  0  0  0  0  0  0  0  0
    4.7675   22.9997    8.0936 H   0  0  0  0  0  0  0  0  0  0  0  0
    2.1803   23.5908    8.5713 H   0  0  0  0  0  0  0  0  0  0  0  0
    1.2482   23.5871    8.9182 H   0  0  0  0  0  0  0  0  0  0  0  0
    0.6915   25.9763    7.2012 H   0  0  0  0  0  0  0  0  0  0  0  0
   -0.9210   23.8989    9.4659 H   0  0  0  0  0  0  0  0  0  0  0  0
   -1.2533   25.9655    7.9269 H   0  0  0  0  0  0  0  0  0  0  0  0
    6.8014   23.9948    6.5445 H   0  0  0  0  0  0  0  0  0  0  0  0
    8.0307   25.1459    5.1663 H   0  0  0  0  0  0  0  0  0  0  0  0
    7.3503   26.7436    4.1325 H   0  0  0  0  0  0  0  0  0  0  0  0
    5.1717   27.4309    4.3824 H   0  0  0  0  0  0  0  0  0  0  0  0
  1  2  1  0
  2  3  1  0
  3  4  1  0
  4  5  1  0
  5  6  1  0
  6  7  1  0
  7  8  1  0
  8  9  1  0
  9 10  1  0
  5 11  1  0
 11 12  1  0
  8  2  1  0
 12  5  1  0
  1 13  1  0
  1 14  1  0
  1 15  1  0
  2 16  1  0
  3 17  1  0
  3 18  1  0
  6 19  1  0
  6 20  1  0
  7 21  1  0
  7 22  1  0
  8 23  1  0
  9 24  1  0
  9 25  1  0
 10 26  1  0
 10 27  1  0
 11 28  1  0
 11 29  1  0
 12 30  1  0
 12 31  1  0
M  END
