
     RDKit          2D

 86 90  0  0  0  0  0  0  0  0999 V2000
   17.5359  -23.2595  -12.6616 C   0  0  0  0  0  0  0  0  0  0  0  0
   18.0313  -21.8542  -12.4893 C   0  0  0  0  0  0  0  0  0  0  0  0
   18.2272  -20.9756  -13.6890 C   0  0  0  0  0  0  0  0  0  0  0  0
   18.4232  -20.0969  -14.8889 C   0  0  0  0  0  0  0  0  0  0  0  0
   18.6191  -19.2183  -16.0888 C   0  0  0  0  0  0  0  0  0  0  0  0
   19.1051  -17.9672  -15.4189 C   0  0  0  0  0  0  0  0  0  0  0  0
   18.6463  -18.7741  -17.5212 C   0  0  0  0  0  0  0  0  0  0  0  0
   18.2012  -20.1642  -17.1753 O   0  0  0  0  0  0  0  0  0  0  0  0
   18.3308  -21.3276  -11.1171 C   0  0  0  0  0  0  0  0  0  0  0  0
   18.0228  -22.4650  -10.1889 C   0  0  0  0  0  0  0  0  0  0  0  0
   18.5167  -21.1602   -9.6381 C   0  0  0  0  0  0  0  0  0  0  0  0
   18.5765  -21.3634   -8.1531 C   0  0  0  0  0  0  0  0  0  0  0  0
   18.6363  -21.5666   -6.6681 C   0  0  0  0  0  0  0  0  0  0  0  0
   18.6961  -21.7699   -5.1831 C   0  0  0  0  0  0  0  0  0  0  0  0
   18.7559  -21.9731   -3.6982 C   0  0  0  0  0  0  0  0  0  0  0  0
   18.8157  -22.1762   -2.2133 F   0  0  0  0  0  0  0  0  0  0  0  0
   18.5855  -19.8772   -7.9501 C   0  0  0  0  0  0  0  0  0  0  0  0
   18.5945  -18.3910   -7.7471 C   0  0  0  0  0  0  0  0  0  0  0  0
   18.0513  -20.0638   -6.5609 C   0  0  0  0  0  0  0  0  0  0  0  0
   17.5170  -20.2504   -5.1717 C   0  0  0  0  0  0  0  0  0  0  0  0
   16.9828  -20.4369   -3.7826 C   0  0  0  0  0  0  0  0  0  0  0  0
   18.9798  -19.7502   -9.8559 C   0  0  0  0  0  0  0  0  0  0  0  0
   18.7938  -19.9176  -11.3349 C   0  0  0  0  0  0  0  0  0  0  0  0
   18.6078  -20.0850  -12.8139 C   0  0  0  0  0  0  0  0  0  0  0  0
   18.8499  -21.5425  -13.0730 C   0  0  0  0  0  0  0  0  0  0  0  0
   18.5060  -20.6256  -14.2094 C   0  0  0  0  0  0  0  0  0  0  0  0
   18.1676  -19.2548  -14.7157 N   0  0  0  0  0  0  0  0  0  0  0  0
   18.2695  -18.7142  -13.3202 C   0  0  0  0  0  0  0  0  0  0  0  0
   18.3713  -18.1736  -11.9247 C   0  0  0  0  0  0  0  0  0  0  0  0
   18.4732  -17.6329  -10.5293 C   0  0  0  0  0  0  0  0  0  0  0  0
   18.5751  -17.0923   -9.1339 C   0  0  0  0  0  0  0  0  0  0  0  0
   18.6770  -16.5517   -7.7384 C   0  0  0  0  0  0  0  0  0  0  0  0
   18.7789  -16.0111   -6.3429 C   0  0  0  0  0  0  0  0  0  0  0  0
   18.8808  -15.4704   -4.9474 C   0  0  0  0  0  0  0  0  0  0  0  0
   17.2364  -23.7861  -14.0339 H   0  0  0  0  0  0  0  0  0  0  0  0
   17.2855  -24.2675  -11.5795 H   0  0  0  0  0  0  0  0  0  0  0  0
   17.9189  -22.1355  -14.5888 H   0  0  0  0  0  0  0  0  0  0  0  0
   18.5738  -19.6376  -13.1064 H   0  0  0  0  0  0  0  0  0  0  0  0
   18.0319  -21.1103  -15.9235 H   0  0  0  0  0  0  0  0  0  0  0  0
   18.8838  -18.7282  -14.4835 H   0  0  0  0  0  0  0  0  0  0  0  0
   19.5910  -16.7162  -14.7490 H   0  0  0  0  0  0  0  0  0  0  0  0
   19.4074  -17.1959  -16.6693 H   0  0  0  0  0  0  0  0  0  0  0  0
   19.0506  -18.1009  -13.9258 H   0  0  0  0  0  0  0  0  0  0  0  0
   19.1307  -17.3545  -17.5311 H   0  0  0  0  0  0  0  0  0  0  0  0
   18.5013  -18.8180  -19.0135 H   0  0  0  0  0  0  0  0  0  0  0  0
   17.5573  -23.6104  -11.0383 H   0  0  0  0  0  0  0  0  0  0  0  0
   17.8109  -23.3821   -9.0209 H   0  0  0  0  0  0  0  0  0  0  0  0
   18.5749  -22.8632   -8.1736 H   0  0  0  0  0  0  0  0  0  0  0  0
   18.1454  -22.9734   -6.8410 H   0  0  0  0  0  0  0  0  0  0  0  0
   19.1271  -20.2508   -6.1411 H   0  0  0  0  0  0  0  0  0  0  0  0
   19.1976  -20.4577   -4.6571 H   0  0  0  0  0  0  0  0  0  0  0  0
   18.1941  -23.1729   -5.3550 H   0  0  0  0  0  0  0  0  0  0  0  0
   19.2250  -20.5590   -3.5237 H   0  0  0  0  0  0  0  0  0  0  0  0
   18.3152  -23.3942   -3.5083 H   0  0  0  0  0  0  0  0  0  0  0  0
   19.1060  -19.3366   -9.2489 H   0  0  0  0  0  0  0  0  0  0  0  0
   18.6176  -16.9982   -7.1908 H   0  0  0  0  0  0  0  0  0  0  0  0
   18.6549  -18.4116   -6.2483 H   0  0  0  0  0  0  0  0  0  0  0  0
   18.5347  -18.1878   -9.2320 H   0  0  0  0  0  0  0  0  0  0  0  0
   17.9925  -18.6113   -6.1910 H   0  0  0  0  0  0  0  0  0  0  0  0
   17.9158  -21.5510   -6.4208 H   0  0  0  0  0  0  0  0  0  0  0  0
   17.3153  -18.7689   -5.0504 H   0  0  0  0  0  0  0  0  0  0  0  0
   17.5835  -21.7329   -4.9534 H   0  0  0  0  0  0  0  0  0  0  0  0
   16.4486  -20.6234   -2.3934 H   0  0  0  0  0  0  0  0  0  0  0  0
   16.3636  -19.0718   -3.8374 H   0  0  0  0  0  0  0  0  0  0  0  0
   17.4544  -21.8066   -3.3932 H   0  0  0  0  0  0  0  0  0  0  0  0
   19.4428  -18.3401  -10.0737 H   0  0  0  0  0  0  0  0  0  0  0  0
   19.2722  -19.2465   -8.4736 H   0  0  0  0  0  0  0  0  0  0  0  0
   19.2881  -18.5090  -11.1883 H   0  0  0  0  0  0  0  0  0  0  0  0
   19.1835  -22.3337  -11.8433 H   0  0  0  0  0  0  0  0  0  0  0  0
   18.9894  -22.8377  -13.8166 H   0  0  0  0  0  0  0  0  0  0  0  0
   18.5383  -21.6404  -15.3135 H   0  0  0  0  0  0  0  0  0  0  0  0
   17.8251  -18.3582  -15.8685 H   0  0  0  0  0  0  0  0  0  0  0  0
   17.9311  -17.3434  -13.8266 H   0  0  0  0  0  0  0  0  0  0  0  0
   18.7976  -16.8433  -12.4713 H   0  0  0  0  0  0  0  0  0  0  0  0
   17.9824  -19.3335  -11.0569 H   0  0  0  0  0  0  0  0  0  0  0  0
   18.9007  -16.3031  -11.0757 H   0  0  0  0  0  0  0  0  0  0  0  0
   18.1106  -18.6807   -9.5190 H   0  0  0  0  0  0  0  0  0  0  0  0
   19.1436  -15.8124   -9.6712 H   0  0  0  0  0  0  0  0  0  0  0  0
   17.9984  -18.4285   -8.7705 H   0  0  0  0  0  0  0  0  0  0  0  0
   19.1688  -15.2427   -8.2813 H   0  0  0  0  0  0  0  0  0  0  0  0
   18.2244  -17.6909   -6.8738 H   0  0  0  0  0  0  0  0  0  0  0  0
   19.2058  -14.6810   -6.8893 H   0  0  0  0  0  0  0  0  0  0  0  0
   18.3520  -17.3411   -5.7965 H   0  0  0  0  0  0  0  0  0  0  0  0
   18.9826  -14.9298   -3.5519 H   0  0  0  0  0  0  0  0  0  0  0  0
   19.3075  -14.1402   -5.4938 H   0  0  0  0  0  0  0  0  0  0  0  0
   18.4541  -16.8006   -4.4010 H   0  0  0  0  0  0  0  0  0  0  0  0
  1  2  2  3
  2  3  1  0
  3  4  1  0
  4  5  1  0
  5  6  1  0
  5  7  1  0
  7  8  1  0
  2  9  1  0
  9 10  1  0
 10 11  1  0
 11 12  1  0
 12 13  1  0
 13 14  1  0
 14 15  1  0
 15 16  1  0
 12 17  1  0
 17 18  1  0
 17 19  1  0
 19 20  1  0
 20 21  1  0
 11 22  1  0
 22 23  1  0
 23 24  1  0
 24 25  1  0
 25 26  1  0
 26 27  1  0
 27 28  1  0
 28 29  1  0
 29 30  1  0
 30 31  1  0
 31 32  1  0
 32 33  1  0
 33 34  1  0
  8  5  1  0
 11  9  1  0
 26 24  1  0
 23  9  1  0
 28 24  1  0
  1 35  1  0
  1 36  1  0
  3 37  1  0
  3 38  1  0
  4 39  1  0
  4 40  1  0
  6 41  1  0
  6 42  1  0
  6 43  1  0
  7 44  1  0
  7 45  1  0
 10 46  1  0
 10 47  1  0
 12 48  1  0
 13 49  1  0
 13 50  1  0
 14 51  1  0
 14 52  1  0
 15 53  1  0
 15 54  1  0
 17 55  1  0
 18 56  1  0
 18 57  1  0
 18 58  1  0
 19 59  1  0
 19 60  1  0
 20 61  1  0
 20 62  1  0
 21 63  1  0
 21 64  1  0
 21 65  1  0
 22 66  1  0
 22 67  1  0
 23 68  1  0
 25 69  1  0
 25 70  1  0
 26 71  1  0
 27 72  1  0
 28 73  1  0
 29 74  1  0
 29 75  1  0
 30 76  1  0
 30 77  1  0
 31 78  1  0
 31 79  1  0
 32 80  1  0
 32 81  1  0
 33 82  1  0
 33 83  1  0
 34 84  1  0
 34 85  1  0
 34 86  1  0
M  END
