
     RDKit          2D

 37 39  0  0  0  0  0  0  0  0999 V2000
    0.0078   26.1512    7.7432 C   0  0  0  0  0  0  0  0  0  0  0  0
   -0.2676   25.0302    6.7853 C   0  0  0  0  0  0  0  0  0  0  0  0
   -0.5431   23.9092    5.8274 C   0  0  0  0  0  0  0  0  0  0  0  0
   -1.7202   25.4042    6.7651 C   0  0  0  0  0  0  0  0  0  0  0  0
   -3.1726   25.7783    6.7450 C   0  0  0  0  0  0  0  0  0  0  0  0
   -4.6250   26.1523    6.7249 C   0  0  0  0  0  0  0  0  0  0  0  0
   -5.1458   25.1234    5.7657 C   0  0  0  0  0  0  0  0  0  0  0  0
   -6.0832   26.1239    6.3741 C   0  0  0  0  0  0  0  0  0  0  0  0
   -6.5733   27.2729    7.2045 C   0  0  0  0  0  0  0  0  0  0  0  0
   -5.6110   28.0479    8.0550 C   0  0  0  0  0  0  0  0  0  0  0  0
   -6.1012   29.1969    8.8854 C   0  0  0  0  0  0  0  0  0  0  0  0
   -7.5536   29.5709    8.8653 C   0  0  0  0  0  0  0  0  0  0  0  0
   -8.5160   28.7959    8.0148 C   0  0  0  0  0  0  0  0  0  0  0  0
   -9.4783   28.0210    7.1643 C   0  0  0  0  0  0  0  0  0  0  0  0
   -8.0258   27.6469    7.1844 C   0  0  0  0  0  0  0  0  0  0  0  0
    0.2832   27.2722    8.7010 H   0  0  0  0  0  0  0  0  0  0  0  0
    1.4602   25.7771    7.7633 H   0  0  0  0  0  0  0  0  0  0  0  0
   -0.8237   26.4511    7.8002 H   0  0  0  0  0  0  0  0  0  0  0  0
    1.1848   24.6561    6.8054 H   0  0  0  0  0  0  0  0  0  0  0  0
   -0.8185   22.7882    4.8696 H   0  0  0  0  0  0  0  0  0  0  0  0
    0.6043   23.1343    6.4044 H   0  0  0  0  0  0  0  0  0  0  0  0
   -1.2354   24.2827    5.4203 H   0  0  0  0  0  0  0  0  0  0  0  0
   -1.9842   24.7810    6.1939 H   0  0  0  0  0  0  0  0  0  0  0  0
   -1.6652   26.0814    7.3335 H   0  0  0  0  0  0  0  0  0  0  0  0
   -3.2914   24.6204    6.0610 H   0  0  0  0  0  0  0  0  0  0  0  0
   -2.8613   27.0285    7.5132 H   0  0  0  0  0  0  0  0  0  0  0  0
   -4.4661   27.0667    7.5091 H   0  0  0  0  0  0  0  0  0  0  0  0
   -6.1082   24.3484    4.9152 H   0  0  0  0  0  0  0  0  0  0  0  0
   -4.0924   24.3695    5.3852 H   0  0  0  0  0  0  0  0  0  0  0  0
   -7.3711   25.6964    5.7348 H   0  0  0  0  0  0  0  0  0  0  0  0
   -4.4164   27.8568    8.1670 H   0  0  0  0  0  0  0  0  0  0  0  0
   -5.1389   29.9718    9.7359 H   0  0  0  0  0  0  0  0  0  0  0  0
   -8.0438   30.7199    9.6957 H   0  0  0  0  0  0  0  0  0  0  0  0
   -9.6376   29.6752    8.4826 H   0  0  0  0  0  0  0  0  0  0  0  0
  -10.7500   28.7524    7.4773 H   0  0  0  0  0  0  0  0  0  0  0  0
   -9.9990   26.9920    6.2050 H   0  0  0  0  0  0  0  0  0  0  0  0
   -8.2985   26.5362    6.2139 H   0  0  0  0  0  0  0  0  0  0  0  0
  1  2  1  0
  2  3  1  0
  2  4  1  0
  4  5  1  0
  5  6  1  0
  6  7  1  0
  7  8  1  0
  8  9  1  0
  9 10  2  0
 10 11  1  0
 11 12  2  0
 12 13  1  0
 13 14  1  0
 14 15  1  0
  8  6  1  0
 15  9  1  0
 15 13  1  0
  1 16  1  0
  1 17  1  0
  1 18  1  0
  2 19  1  0
  3 20  1  0
  3 21  1  0
  3 22  1  0
  4 23  1  0
  4 24  1  0
  5 25  1  0
  5 26  1  0
  6 27  1  0
  7 28  1  0
  7 29  1  0
  8 30  1  0
 10 31  1  0
 11 32  1  0
 12 33  1  0
 13 34  1  0
 14 35  1  0
 14 36  1  0
 15 37  1  0
M  END
