
     RDKit          2D

 26 26  0  0  0  0  0  0  0  0999 V2000
    2.0487   22.3437    5.9988 C   0  0  0  0  0  0  0  0  0  0  0  0
    2.3122   23.6420    5.2952 C   0  0  0  0  0  0  0  0  0  0  0  0
    2.5757   24.9403    4.5917 C   0  0  0  0  0  0  0  0  0  0  0  0
    2.8392   26.2386    3.8880 O   0  0  0  0  0  0  0  0  0  0  0  0
    0.8412   23.8101    5.0544 C   0  0  0  0  0  0  0  0  0  0  0  0
   -0.6297   23.9781    4.8136 C   0  0  0  0  0  0  0  0  0  0  0  0
   -2.1007   24.1462    4.5727 C   0  0  0  0  0  0  0  0  0  0  0  0
   -2.0747   25.2611    3.5695 O   0  0  0  0  0  0  0  0  0  0  0  0
   -2.6376   23.0898    5.4923 C   0  0  0  0  0  0  0  0  0  0  0  0
   -3.5807   23.9271    4.6803 C   0  0  0  0  0  0  0  0  0  0  0  0
   -4.0687   24.9658    3.7145 Br  0  0  0  0  0  0  0  0  0  0  0  0
    1.7851   21.0454    6.7025 H   0  0  0  0  0  0  0  0  0  0  0  0
    3.3973   21.8411    5.5764 H   0  0  0  0  0  0  0  0  0  0  0  0
    1.2392   22.5450    6.2971 H   0  0  0  0  0  0  0  0  0  0  0  0
    3.7832   23.4740    5.5361 H   0  0  0  0  0  0  0  0  0  0  0  0
    4.0470   24.7704    4.8293 H   0  0  0  0  0  0  0  0  0  0  0  0
    1.7324   25.1333    4.4017 H   0  0  0  0  0  0  0  0  0  0  0  0
    4.2450   26.7413    3.7434 H   0  0  0  0  0  0  0  0  0  0  0  0
    0.5681   23.1723    5.6050 H   0  0  0  0  0  0  0  0  0  0  0  0
    0.9025   24.4721    4.4691 H   0  0  0  0  0  0  0  0  0  0  0  0
   -0.7236   22.9726    5.7095 H   0  0  0  0  0  0  0  0  0  0  0  0
   -0.3441   25.0832    3.8402 H   0  0  0  0  0  0  0  0  0  0  0  0
   -3.3592   25.7961    3.0093 H   0  0  0  0  0  0  0  0  0  0  0  0
   -3.6206   22.2191    6.2173 H   0  0  0  0  0  0  0  0  0  0  0  0
   -1.5749   22.5045    6.0843 H   0  0  0  0  0  0  0  0  0  0  0  0
   -4.8913   23.3473    5.1233 H   0  0  0  0  0  0  0  0  0  0  0  0
  1  2  1  0
  2  3  1  0
  3  4  1  0
  2  5  1  0
  5  6  1  0
  6  7  1  0
  7  8  1  0
  7  9  1  0
  9 10  1  0
 10 11  1  0
 10  7  1  0
  1 12  1  0
  1 13  1  0
  1 14  1  0
  2 15  1  0
  3 16  1  0
  3 17  1  0
  4 18  1  0
  5 19  1  0
  5 20  1  0
  6 21  1  0
  6 22  1  0
  8 23  1  0
  9 24  1  0
  9 25  1  0
 10 26  1  0
M  END
