
     RDKit          2D

 41 47  0  0  0  0  0  0  0  0999 V2000
   18.9387  -21.1773   -9.0018 C   0  0  0  0  0  0  0  0  0  0  0  0
   17.4999  -21.5623   -8.8231 C   0  0  0  0  0  0  0  0  0  0  0  0
   16.0612  -21.9474   -8.6444 N   0  0  0  0  0  0  0  0  0  0  0  0
   15.6298  -22.6851   -7.4116 C   0  0  0  0  0  0  0  0  0  0  0  0
   15.7074  -23.3719   -6.0804 C   0  0  0  0  0  0  0  0  0  0  0  0
   15.7850  -24.0588   -4.7491 C   0  0  0  0  0  0  0  0  0  0  0  0
   17.1008  -24.1685   -4.0374 O   0  0  0  0  0  0  0  0  0  0  0  0
   14.5468  -24.6359   -4.1297 O   0  0  0  0  0  0  0  0  0  0  0  0
   14.4692  -23.9491   -5.4609 C   0  0  0  0  0  0  0  0  0  0  0  0
   13.1534  -23.8393   -6.1727 C   0  0  0  0  0  0  0  0  0  0  0  0
   13.0758  -23.1524   -7.5039 C   0  0  0  0  0  0  0  0  0  0  0  0
   14.3140  -22.5753   -8.1234 N   0  0  0  0  0  0  0  0  0  0  0  0
   14.2364  -21.8885   -9.4546 N   0  0  0  0  0  0  0  0  0  0  0  0
   15.3837  -21.2665  -10.1940 C   0  0  0  0  0  0  0  0  0  0  0  0
   16.3128  -20.5755  -11.1477 C   0  0  0  0  0  0  0  0  0  0  0  0
   14.8543  -20.6966  -11.4765 C   0  0  0  0  0  0  0  0  0  0  0  0
   13.3797  -20.9665  -11.5299 C   0  0  0  0  0  0  0  0  0  0  0  0
   11.9535  -21.3733  -11.3052 C   0  0  0  0  0  0  0  0  0  0  0  0
   11.5716  -22.1099  -10.0556 C   0  0  0  0  0  0  0  0  0  0  0  0
   12.9978  -21.7031  -10.2802 C   0  0  0  0  0  0  0  0  0  0  0  0
   20.3772  -20.7923   -9.1804 H   0  0  0  0  0  0  0  0  0  0  0  0
   18.6048  -20.5414  -10.3186 H   0  0  0  0  0  0  0  0  0  0  0  0
   19.2723  -21.8133   -7.6849 H   0  0  0  0  0  0  0  0  0  0  0  0
   17.3729  -21.0221  -10.2166 H   0  0  0  0  0  0  0  0  0  0  0  0
   17.9777  -22.0088   -7.4731 H   0  0  0  0  0  0  0  0  0  0  0  0
   15.8104  -21.5434   -9.5060 H   0  0  0  0  0  0  0  0  0  0  0  0
   17.0627  -22.6278   -6.9714 H   0  0  0  0  0  0  0  0  0  0  0  0
   14.9570  -23.5994   -5.9367 H   0  0  0  0  0  0  0  0  0  0  0  0
   17.3362  -25.2853   -3.0641 H   0  0  0  0  0  0  0  0  0  0  0  0
   12.7220  -24.5770   -4.9399 H   0  0  0  0  0  0  0  0  0  0  0  0
   11.6878  -23.9858   -6.4563 H   0  0  0  0  0  0  0  0  0  0  0  0
   11.6371  -23.5375   -7.3253 H   0  0  0  0  0  0  0  0  0  0  0  0
   12.3372  -22.6630   -8.7142 H   0  0  0  0  0  0  0  0  0  0  0  0
   16.6497  -21.4268   -9.4055 H   0  0  0  0  0  0  0  0  0  0  0  0
   17.6820  -20.6212  -10.5368 H   0  0  0  0  0  0  0  0  0  0  0  0
   16.7932  -19.8375  -12.3621 H   0  0  0  0  0  0  0  0  0  0  0  0
   14.9313  -19.9853  -12.7950 H   0  0  0  0  0  0  0  0  0  0  0  0
   13.1485  -20.3116  -12.8594 H   0  0  0  0  0  0  0  0  0  0  0  0
   10.9091  -21.0434  -12.3302 H   0  0  0  0  0  0  0  0  0  0  0  0
   10.1006  -22.2815  -10.2936 H   0  0  0  0  0  0  0  0  0  0  0  0
   11.5204  -22.8176   -8.7340 H   0  0  0  0  0  0  0  0  0  0  0  0
  1  2  1  0
  2  3  1  0
  3  4  1  0
  4  5  1  0
  5  6  1  0
  6  7  1  0
  6  8  1  0
  8  9  1  0
  9 10  1  0
 10 11  1  0
 11 12  1  0
 12 13  1  0
 13 14  1  0
 14 15  1  0
 15 16  1  0
 16 17  1  0
 17 18  1  0
 18 19  1  0
 19 20  1  0
 12  4  1  0
 20 13  1  0
  9  5  1  0
 16 14  1  0
 20 17  1  0
  9  6  1  0
 20 18  1  0
  1 21  1  0
  1 22  1  0
  1 23  1  0
  2 24  1  0
  2 25  1  0
  3 26  1  0
  4 27  1  0
  5 28  1  0
  7 29  1  0
 10 30  1  0
 10 31  1  0
 11 32  1  0
 11 33  1  0
 14 34  1  0
 15 35  1  0
 15 36  1  0
 16 37  1  0
 17 38  1  0
 18 39  1  0
 19 40  1  0
 19 41  1  0
M  END
