
     RDKit          2D

 46 47  0  0  0  0  0  0  0  0999 V2000
   -0.1529   27.0762    5.2799 C   0  0  0  0  0  0  0  0  0  0  0  0
    0.8080   26.0197    5.7386 C   0  0  0  0  0  0  0  0  0  0  0  0
    1.7689   24.9631    6.1973 C   0  0  0  0  0  0  0  0  0  0  0  0
    2.7896   25.8202    6.8853 C   0  0  0  0  0  0  0  0  0  0  0  0
    1.0818   23.7390    5.6687 C   0  0  0  0  0  0  0  0  0  0  0  0
    0.8113   22.2956    5.3631 C   0  0  0  0  0  0  0  0  0  0  0  0
    0.5407   20.8522    5.0574 O   0  0  0  0  0  0  0  0  0  0  0  0
    2.3752   23.6089    6.4170 C   0  0  0  0  0  0  0  0  0  0  0  0
    3.6065   23.9957    7.1813 C   0  0  0  0  0  0  0  0  0  0  0  0
    4.8379   24.3825    7.9456 C   0  0  0  0  0  0  0  0  0  0  0  0
    4.8845   25.8711    8.1239 C   0  0  0  0  0  0  0  0  0  0  0  0
    5.7516   26.9278    8.7416 C   0  0  0  0  0  0  0  0  0  0  0  0
    7.0335   27.0581    9.5096 C   0  0  0  0  0  0  0  0  0  0  0  0
    8.1303   26.2011   10.0686 C   0  0  0  0  0  0  0  0  0  0  0  0
    8.5289   24.7577   10.1570 C   0  0  0  0  0  0  0  0  0  0  0  0
    8.0427   23.4034    9.7334 C   0  0  0  0  0  0  0  0  0  0  0  0
    6.8992   22.7718    8.9961 C   0  0  0  0  0  0  0  0  0  0  0  0
    5.6336   23.1585    8.2900 C   0  0  0  0  0  0  0  0  0  0  0  0
   -1.1138   28.1327    4.8212 H   0  0  0  0  0  0  0  0  0  0  0  0
   -1.0212   26.0193    4.6642 H   0  0  0  0  0  0  0  0  0  0  0  0
    0.7154   28.1331    5.8956 H   0  0  0  0  0  0  0  0  0  0  0  0
   -0.0725   25.1916    5.1374 H   0  0  0  0  0  0  0  0  0  0  0  0
    1.4107   26.9737    6.1892 H   0  0  0  0  0  0  0  0  0  0  0  0
    3.8104   26.6775    7.5732 H   0  0  0  0  0  0  0  0  0  0  0  0
    3.3309   25.2992    7.1518 H   0  0  0  0  0  0  0  0  0  0  0  0
    2.2512   26.8890    6.6755 H   0  0  0  0  0  0  0  0  0  0  0  0
   -0.0430   24.1545    5.0485 H   0  0  0  0  0  0  0  0  0  0  0  0
   -0.4543   22.6823    4.6569 H   0  0  0  0  0  0  0  0  0  0  0  0
    1.9121   21.7918    5.9603 H   0  0  0  0  0  0  0  0  0  0  0  0
   -0.6906   20.4654    4.2932 H   0  0  0  0  0  0  0  0  0  0  0  0
    2.6754   22.2934    6.4605 H   0  0  0  0  0  0  0  0  0  0  0  0
    3.4980   24.7685    7.3437 H   0  0  0  0  0  0  0  0  0  0  0  0
    3.9702   22.5567    6.9649 H   0  0  0  0  0  0  0  0  0  0  0  0
    5.1453   28.2821    8.5219 H   0  0  0  0  0  0  0  0  0  0  0  0
    6.4947   28.4468    9.3331 H   0  0  0  0  0  0  0  0  0  0  0  0
    7.8950   28.1210   10.1246 H   0  0  0  0  0  0  0  0  0  0  0  0
    8.6235   27.5517   10.4959 H   0  0  0  0  0  0  0  0  0  0  0  0
    9.4111   26.3400   10.8369 H   0  0  0  0  0  0  0  0  0  0  0  0
    9.6759   25.3814   10.8956 H   0  0  0  0  0  0  0  0  0  0  0  0
    9.6297   23.9079   10.7190 H   0  0  0  0  0  0  0  0  0  0  0  0
    9.3068   23.0082   10.4377 H   0  0  0  0  0  0  0  0  0  0  0  0
    8.4485   21.9623    9.8263 H   0  0  0  0  0  0  0  0  0  0  0  0
    7.6890   21.5428    9.3366 H   0  0  0  0  0  0  0  0  0  0  0  0
    6.4201   21.4138    8.5763 H   0  0  0  0  0  0  0  0  0  0  0  0
    5.5794   21.6706    8.1073 H   0  0  0  0  0  0  0  0  0  0  0  0
    4.4938   22.5190    7.5540 H   0  0  0  0  0  0  0  0  0  0  0  0
  1  2  1  0
  2  3  1  0
  3  4  1  0
  3  5  1  0
  5  6  1  0
  6  7  1  0
  5  8  1  0
  8  9  1  0
  9 10  1  0
 10 11  2  0
 11 12  2  0
 12 13  1  0
 13 14  1  0
 14 15  1  0
 15 16  1  0
 16 17  1  0
 17 18  1  0
  8  3  1  0
 18 10  1  0
  1 19  1  0
  1 20  1  0
  1 21  1  0
  2 22  1  0
  2 23  1  0
  4 24  1  0
  4 25  1  0
  4 26  1  0
  5 27  1  0
  6 28  1  0
  6 29  1  0
  7 30  1  0
  8 31  1  0
  9 32  1  0
  9 33  1  0
 12 34  1  0
 13 35  1  0
 13 36  1  0
 14 37  1  0
 14 38  1  0
 15 39  1  0
 15 40  1  0
 16 41  1  0
 16 42  1  0
 17 43  1  0
 17 44  1  0
 18 45  1  0
 18 46  1  0
M  END
