
     RDKit          2D

 73 78  0  0  0  0  0  0  0  0999 V2000
   -1.8585   26.9902    1.2461 C   0  0  0  0  0  0  0  0  0  0  0  0
   -1.4572   27.3050    2.6567 C   0  0  0  0  0  0  0  0  0  0  0  0
   -1.0561   27.6199    4.0674 N   0  0  0  0  0  0  0  0  0  0  0  0
    0.2704   27.1553    4.5914 C   0  0  0  0  0  0  0  0  0  0  0  0
    1.5969   26.6907    5.1153 C   0  0  0  0  0  0  0  0  0  0  0  0
    2.9469   26.0380    5.1540 O   0  0  0  0  0  0  0  0  0  0  0  0
    2.1253   25.9878    3.9001 C   0  0  0  0  0  0  0  0  0  0  0  0
    3.0506   25.2084    3.0133 O   0  0  0  0  0  0  0  0  0  0  0  0
   -1.9815   28.3993    4.9541 C   0  0  0  0  0  0  0  0  0  0  0  0
   -2.9068   29.1787    5.8407 C   0  0  0  0  0  0  0  0  0  0  0  0
   -1.7638   28.9582    6.7868 C   0  0  0  0  0  0  0  0  0  0  0  0
   -1.8315   29.4997    8.1840 C   0  0  0  0  0  0  0  0  0  0  0  0
   -3.0422   30.2617    8.6352 C   0  0  0  0  0  0  0  0  0  0  0  0
   -5.3958   31.2443    8.1404 C   0  0  0  0  0  0  0  0  0  0  0  0
   -4.2528   31.0238    9.0864 C   0  0  0  0  0  0  0  0  0  0  0  0
   -4.7812   31.7266   10.3016 C   0  0  0  0  0  0  0  0  0  0  0  0
   -4.1851   30.4823    7.6892 C   0  0  0  0  0  0  0  0  0  0  0  0
   -4.1175   29.9408    6.2919 C   0  0  0  0  0  0  0  0  0  0  0  0
   -5.2605   30.1613    5.3460 C   0  0  0  0  0  0  0  0  0  0  0  0
   -6.4035   30.3818    4.4000 C   0  0  0  0  0  0  0  0  0  0  0  0
   -6.4712   30.9233    5.7972 C   0  0  0  0  0  0  0  0  0  0  0  0
   -6.5389   31.4648    7.1943 C   0  0  0  0  0  0  0  0  0  0  0  0
   -7.0673   32.1676    8.4096 C   0  0  0  0  0  0  0  0  0  0  0  0
   -7.5956   32.8705    9.6248 C   0  0  0  0  0  0  0  0  0  0  0  0
   -8.9456   33.5231    9.5862 C   0  0  0  0  0  0  0  0  0  0  0  0
   -9.4739   34.2260   10.8014 C   0  0  0  0  0  0  0  0  0  0  0  0
  -10.0023   34.9287   12.0167 C   0  0  0  0  0  0  0  0  0  0  0  0
  -10.5307   35.6315   13.2320 N   0  0  0  0  0  0  0  0  0  0  0  0
  -11.8807   36.2840   13.1934 C   0  0  0  0  0  0  0  0  0  0  0  0
  -12.4090   36.9869   14.4088 N   0  0  0  0  0  0  0  0  0  0  0  0
  -13.7591   37.6394   14.3701 C   0  0  0  0  0  0  0  0  0  0  0  0
  -15.1092   38.2920   14.3313 O   0  0  0  0  0  0  0  0  0  0  0  0
   -2.2596   26.6754   -0.1645 H   0  0  0  0  0  0  0  0  0  0  0  0
   -3.1578   27.7100    1.4549 H   0  0  0  0  0  0  0  0  0  0  0  0
   -0.5592   26.2704    1.0372 H   0  0  0  0  0  0  0  0  0  0  0  0
   -2.7573   28.0236    2.8660 H   0  0  0  0  0  0  0  0  0  0  0  0
   -0.1573   26.5865    2.4473 H   0  0  0  0  0  0  0  0  0  0  0  0
   -0.0328   27.7859    5.9181 H   0  0  0  0  0  0  0  0  0  0  0  0
    0.3957   26.6429    3.3486 H   0  0  0  0  0  0  0  0  0  0  0  0
    1.5292   27.2322    6.5125 H   0  0  0  0  0  0  0  0  0  0  0  0
    1.1852   26.1022    2.9379 H   0  0  0  0  0  0  0  0  0  0  0  0
    2.6494   24.8935    1.6027 H   0  0  0  0  0  0  0  0  0  0  0  0
   -2.8757   28.4842    3.9463 H   0  0  0  0  0  0  0  0  0  0  0  0
   -1.3974   28.2991    5.4873 H   0  0  0  0  0  0  0  0  0  0  0  0
   -3.3882   28.9645    4.5978 H   0  0  0  0  0  0  0  0  0  0  0  0
   -0.4372   28.4936    7.3107 H   0  0  0  0  0  0  0  0  0  0  0  0
   -1.4038   28.5649    6.1941 H   0  0  0  0  0  0  0  0  0  0  0  0
   -1.4303   29.8146    9.5946 H   0  0  0  0  0  0  0  0  0  0  0  0
   -0.4815   28.8471    8.2227 H   0  0  0  0  0  0  0  0  0  0  0  0
   -2.9437   30.7301   10.0568 H   0  0  0  0  0  0  0  0  0  0  0  0
   -2.9731   30.6396    9.7681 H   0  0  0  0  0  0  0  0  0  0  0  0
   -5.3096   32.4295   11.5169 H   0  0  0  0  0  0  0  0  0  0  0  0
   -3.5279   31.3779   11.0483 H   0  0  0  0  0  0  0  0  0  0  0  0
   -5.9608   31.9871    9.4124 H   0  0  0  0  0  0  0  0  0  0  0  0
   -4.0498   29.3993    4.8948 H   0  0  0  0  0  0  0  0  0  0  0  0
   -4.8209   29.4844    4.0816 H   0  0  0  0  0  0  0  0  0  0  0  0
   -5.8751   29.6789    3.1847 H   0  0  0  0  0  0  0  0  0  0  0  0
   -7.7300   30.8464    3.8760 H   0  0  0  0  0  0  0  0  0  0  0  0
   -5.1690   30.5039    6.4125 H   0  0  0  0  0  0  0  0  0  0  0  0
   -7.8654   31.9294    6.6705 H   0  0  0  0  0  0  0  0  0  0  0  0
   -5.7600   31.7334    9.0035 H   0  0  0  0  0  0  0  0  0  0  0  0
   -8.3193   32.5188    7.6621 H   0  0  0  0  0  0  0  0  0  0  0  0
   -6.7740   32.9207   10.8788 H   0  0  0  0  0  0  0  0  0  0  0  0
   -9.7672   33.4729    8.3322 H   0  0  0  0  0  0  0  0  0  0  0  0
  -10.1062   32.9474   11.2659 H   0  0  0  0  0  0  0  0  0  0  0  0
   -8.8417   35.5044   10.3370 H   0  0  0  0  0  0  0  0  0  0  0  0
   -9.3676   36.2065   11.5537 H   0  0  0  0  0  0  0  0  0  0  0  0
  -10.6371   33.6509   12.4797 H   0  0  0  0  0  0  0  0  0  0  0  0
   -9.7090   35.6817   14.4859 H   0  0  0  0  0  0  0  0  0  0  0  0
  -12.7024   36.2338   11.9396 H   0  0  0  0  0  0  0  0  0  0  0  0
  -13.9285   37.2041   12.9446 H   0  0  0  0  0  0  0  0  0  0  0  0
  -13.5897   38.0747   15.7954 H   0  0  0  0  0  0  0  0  0  0  0  0
  -15.9301   38.2427   13.0768 H   0  0  0  0  0  0  0  0  0  0  0  0
  1  2  1  0
  2  3  1  0
  3  4  1  0
  4  5  1  0
  5  6  1  0
  6  7  1  0
  7  8  1  0
  3  9  1  0
  9 10  1  0
 10 11  1  0
 11 12  1  0
 12 13  1  0
 13 14  1  0
 14 15  1  0
 15 16  1  0
 17 15  1  6
 17 18  1  0
 18 19  1  0
 19 20  1  0
 20 21  1  0
 21 22  1  0
 22 23  1  0
 23 24  1  0
 24 25  2  3
 25 26  1  0
 26 27  1  0
 27 28  1  0
 28 29  1  0
 29 30  2  3
 30 31  1  0
 31 32  1  0
  7  5  1  0
 18 10  1  0
 21 19  1  0
 17 13  1  0
 14 17  1  1
 22 14  1  0
  1 33  1  0
  1 34  1  0
  1 35  1  0
  2 36  1  0
  2 37  1  0
  4 38  1  0
  4 39  1  0
  5 40  1  1
  7 41  1  6
  8 42  1  0
  9 43  1  0
  9 44  1  0
 10 45  1  6
 11 46  1  0
 11 47  1  0
 12 48  1  0
 12 49  1  0
 13 50  1  6
 15 51  1  1
 16 52  1  0
 16 53  1  0
 16 54  1  0
 18 55  1  6
 19 56  1  6
 20 57  1  0
 20 58  1  0
 21 59  1  6
 22 60  1  6
 23 61  1  0
 23 62  1  0
 24 63  1  0
 25 64  1  0
 26 65  1  0
 26 66  1  0
 27 67  1  0
 27 68  1  0
 28 69  1  0
 29 70  1  0
 31 71  1  0
 31 72  1  0
 32 73  1  0
M  END
