
     RDKit          2D

 61 63  0  0  0  0  0  0  0  0999 V2000
   21.2887  -13.7451   -1.8452 C   0  0  0  0  0  0  0  0  0  0  0  0
   20.1016  -14.4947   -2.3732 C   0  0  0  0  0  0  0  0  0  0  0  0
   19.0964  -15.0736   -1.4221 C   0  0  0  0  0  0  0  0  0  0  0  0
   18.0913  -15.6524   -0.4710 C   0  0  0  0  0  0  0  0  0  0  0  0
   18.8816  -15.1210    0.6879 C   0  0  0  0  0  0  0  0  0  0  0  0
   17.8766  -15.6998    1.6389 C   0  0  0  0  0  0  0  0  0  0  0  0
   16.8714  -16.2787    2.5900 C   0  0  0  0  0  0  0  0  0  0  0  0
   15.8662  -16.8576    3.5411 C   0  0  0  0  0  0  0  0  0  0  0  0
   14.8611  -17.4365    4.4922 C   0  0  0  0  0  0  0  0  0  0  0  0
   13.8560  -18.0153    5.4435 C   0  0  0  0  0  0  0  0  0  0  0  0
   17.0861  -16.2313    0.4802 C   0  0  0  0  0  0  0  0  0  0  0  0
   19.9195  -14.6654   -3.8523 C   0  0  0  0  0  0  0  0  0  0  0  0
   19.7375  -14.8361   -5.3314 C   0  0  0  0  0  0  0  0  0  0  0  0
   21.0038  -14.0700   -5.5756 C   0  0  0  0  0  0  0  0  0  0  0  0
   20.8217  -14.2407   -7.0547 C   0  0  0  0  0  0  0  0  0  0  0  0
   19.5554  -15.0068   -6.8105 C   0  0  0  0  0  0  0  0  0  0  0  0
   18.2892  -15.7728   -6.5663 N   0  0  0  0  0  0  0  0  0  0  0  0
   17.6701  -16.5717   -7.6747 C   0  0  0  0  0  0  0  0  0  0  0  0
   17.0512  -17.3705   -8.7832 N   0  0  0  0  0  0  0  0  0  0  0  0
   17.4379  -18.8064   -8.9793 C   0  0  0  0  0  0  0  0  0  0  0  0
   17.4234  -20.3006   -8.8483 C   0  0  0  0  0  0  0  0  0  0  0  0
   16.4170  -19.4728   -8.1055 C   0  0  0  0  0  0  0  0  0  0  0  0
   15.6535  -20.5575   -7.4051 C   0  0  0  0  0  0  0  0  0  0  0  0
   22.2938  -13.1662   -2.7963 H   0  0  0  0  0  0  0  0  0  0  0  0
   21.4707  -13.5744   -0.3661 H   0  0  0  0  0  0  0  0  0  0  0  0
   18.3062  -15.6053   -2.5808 H   0  0  0  0  0  0  0  0  0  0  0  0
   19.6319  -14.7202   -0.8114 H   0  0  0  0  0  0  0  0  0  0  0  0
   17.3009  -16.1840   -1.6298 H   0  0  0  0  0  0  0  0  0  0  0  0
   19.6721  -14.5894    1.8466 H   0  0  0  0  0  0  0  0  0  0  0  0
   19.5276  -14.7434    0.2138 H   0  0  0  0  0  0  0  0  0  0  0  0
   18.6669  -15.1683    2.7977 H   0  0  0  0  0  0  0  0  0  0  0  0
   17.1692  -15.1838    3.5711 H   0  0  0  0  0  0  0  0  0  0  0  0
   16.6245  -16.9621    2.0835 H   0  0  0  0  0  0  0  0  0  0  0  0
   16.1611  -15.7604    4.5205 H   0  0  0  0  0  0  0  0  0  0  0  0
   15.5715  -17.9548    2.5618 H   0  0  0  0  0  0  0  0  0  0  0  0
   15.1462  -16.3315    5.4659 H   0  0  0  0  0  0  0  0  0  0  0  0
   14.5760  -18.5414    3.5187 H   0  0  0  0  0  0  0  0  0  0  0  0
   12.8509  -18.5940    6.3946 H   0  0  0  0  0  0  0  0  0  0  0  0
   13.9465  -19.3349    4.7361 H   0  0  0  0  0  0  0  0  0  0  0  0
   13.7656  -16.6956    6.1508 H   0  0  0  0  0  0  0  0  0  0  0  0
   16.2957  -16.7629   -0.6787 H   0  0  0  0  0  0  0  0  0  0  0  0
   16.4401  -16.6089    0.9542 H   0  0  0  0  0  0  0  0  0  0  0  0
   20.6751  -14.2045   -3.8890 H   0  0  0  0  0  0  0  0  0  0  0  0
   18.6528  -15.4307   -3.6081 H   0  0  0  0  0  0  0  0  0  0  0  0
   18.5029  -15.5756   -4.9087 H   0  0  0  0  0  0  0  0  0  0  0  0
   22.2701  -13.3039   -5.8199 H   0  0  0  0  0  0  0  0  0  0  0  0
   21.2016  -13.9148   -4.7263 H   0  0  0  0  0  0  0  0  0  0  0  0
   20.6397  -14.4114   -8.5338 H   0  0  0  0  0  0  0  0  0  0  0  0
   22.0880  -13.4746   -7.2989 H   0  0  0  0  0  0  0  0  0  0  0  0
   19.3734  -15.1774   -8.2896 H   0  0  0  0  0  0  0  0  0  0  0  0
   17.5140  -15.8504   -5.2844 H   0  0  0  0  0  0  0  0  0  0  0  0
   16.5658  -16.9957   -6.7525 H   0  0  0  0  0  0  0  0  0  0  0  0
   18.7745  -16.1476   -8.5970 H   0  0  0  0  0  0  0  0  0  0  0  0
   16.0456  -16.7332   -9.6957 H   0  0  0  0  0  0  0  0  0  0  0  0
   18.5931  -18.6387   -9.9213 H   0  0  0  0  0  0  0  0  0  0  0  0
   18.5736  -20.6519   -9.7448 H   0  0  0  0  0  0  0  0  0  0  0  0
   17.1460  -21.7356   -8.5107 H   0  0  0  0  0  0  0  0  0  0  0  0
   15.6757  -18.2683   -7.6058 H   0  0  0  0  0  0  0  0  0  0  0  0
   14.8901  -21.6423   -6.7048 H   0  0  0  0  0  0  0  0  0  0  0  0
   16.5424  -21.5893   -8.0340 H   0  0  0  0  0  0  0  0  0  0  0  0
   14.6782  -19.6657   -6.6955 H   0  0  0  0  0  0  0  0  0  0  0  0
  1  2  2  3
  2  3  1  0
  3  4  1  0
  4  5  1  0
  5  6  1  0
  6  7  1  0
  7  8  1  0
  8  9  1  0
  9 10  1  0
  6 11  1  0
  2 12  1  0
 12 13  1  0
 13 14  1  0
 14 15  1  0
 15 16  1  0
 16 17  1  0
 17 18  1  0
 18 19  1  0
 19 20  1  0
 20 21  1  0
 21 22  1  0
 22 23  1  0
 11  4  1  0
 16 13  1  0
 22 20  1  0
  1 24  1  0
  1 25  1  0
  3 26  1  0
  3 27  1  0
  4 28  1  0
  5 29  1  0
  5 30  1  0
  6 31  1  0
  7 32  1  0
  7 33  1  0
  8 34  1  0
  8 35  1  0
  9 36  1  0
  9 37  1  0
 10 38  1  0
 10 39  1  0
 10 40  1  0
 11 41  1  0
 11 42  1  0
 12 43  1  0
 12 44  1  0
 13 45  1  0
 14 46  1  0
 14 47  1  0
 15 48  1  0
 15 49  1  0
 16 50  1  0
 17 51  1  0
 18 52  1  0
 18 53  1  0
 19 54  1  0
 20 55  1  0
 21 56  1  0
 21 57  1  0
 22 58  1  0
 23 59  1  0
 23 60  1  0
 23 61  1  0
M  END
