
     RDKit          2D

 52 56  0  0  0  0  0  0  0  0999 V2000
   -4.3289   26.7071    5.3893 C   0  0  0  0  0  0  0  0  0  0  0  0
   -3.0125   25.9888    5.4248 C   0  0  0  0  0  0  0  0  0  0  0  0
   -1.5907   26.0837    5.8930 C   0  0  0  0  0  0  0  0  0  0  0  0
   -0.2742   25.3654    5.9285 C   0  0  0  0  0  0  0  0  0  0  0  0
    0.7263   24.2259    5.6624 C   0  0  0  0  0  0  0  0  0  0  0  0
   -0.7038   24.6151    5.4308 C   0  0  0  0  0  0  0  0  0  0  0  0
   -1.9661   25.4250    5.4565 C   0  0  0  0  0  0  0  0  0  0  0  0
   -1.6250   23.6849    4.6986 C   0  0  0  0  0  0  0  0  0  0  0  0
   -3.0733   23.7955    4.3241 C   0  0  0  0  0  0  0  0  0  0  0  0
   -3.4596   22.5446    3.5921 C   0  0  0  0  0  0  0  0  0  0  0  0
   -2.2500   21.6608    3.5142 C   0  0  0  0  0  0  0  0  0  0  0  0
   -1.1162   22.3656    4.1981 C   0  0  0  0  0  0  0  0  0  0  0  0
   -0.7522   21.0208    3.6421 O   0  0  0  0  0  0  0  0  0  0  0  0
    0.3138   21.9764    4.4297 C   0  0  0  0  0  0  0  0  0  0  0  0
    1.2350   22.9066    5.1619 C   0  0  0  0  0  0  0  0  0  0  0  0
    2.3544   21.9202    5.0067 C   0  0  0  0  0  0  0  0  0  0  0  0
    3.2756   22.8504    5.7388 C   0  0  0  0  0  0  0  0  0  0  0  0
    2.1563   23.8368    5.8941 C   0  0  0  0  0  0  0  0  0  0  0  0
   -4.1676   23.8015    4.0028 N   0  0  0  0  0  0  0  0  0  0  0  0
   -3.9968   25.1172    4.7028 Si  0  0  0  0  0  4  0  0  0  0  0  0
   -5.4187   25.0223    4.2347 C   0  0  0  0  0  0  0  0  0  0  0  0
   -5.6453   27.4253    5.3537 H   0  0  0  0  0  0  0  0  0  0  0  0
   -3.7824   27.7419    6.0623 H   0  0  0  0  0  0  0  0  0  0  0  0
   -4.9362   25.5573    4.6415 H   0  0  0  0  0  0  0  0  0  0  0  0
   -3.0179   27.2000    6.0211 H   0  0  0  0  0  0  0  0  0  0  0  0
   -2.1392   27.3933    6.3769 H   0  0  0  0  0  0  0  0  0  0  0  0
   -0.8731   26.7192    6.4193 H   0  0  0  0  0  0  0  0  0  0  0  0
   -0.0228   26.2882    6.4585 H   0  0  0  0  0  0  0  0  0  0  0  0
    1.1476   25.4603    6.3967 H   0  0  0  0  0  0  0  0  0  0  0  0
   -0.6305   25.3181    5.7995 H   0  0  0  0  0  0  0  0  0  0  0  0
   -3.3634   25.9477    5.3005 H   0  0  0  0  0  0  0  0  0  0  0  0
   -1.7530   26.7303    6.1641 H   0  0  0  0  0  0  0  0  0  0  0  0
   -3.1882   24.8453    4.8082 H   0  0  0  0  0  0  0  0  0  0  0  0
   -2.5674   24.8178    4.9786 H   0  0  0  0  0  0  0  0  0  0  0  0
   -3.3386   25.1490    4.9136 H   0  0  0  0  0  0  0  0  0  0  0  0
   -4.4031   24.4874    4.2715 H   0  0  0  0  0  0  0  0  0  0  0  0
   -4.8171   22.2322    3.0356 H   0  0  0  0  0  0  0  0  0  0  0  0
   -3.1713   20.7306    2.7820 H   0  0  0  0  0  0  0  0  0  0  0  0
   -1.6710   20.3596    3.0434 H   0  0  0  0  0  0  0  0  0  0  0  0
   -1.6537   20.0736    2.9074 H   0  0  0  0  0  0  0  0  0  0  0  0
    1.4798   21.0400    4.3130 H   0  0  0  0  0  0  0  0  0  0  0  0
    0.1761   20.6537    3.7360 H   0  0  0  0  0  0  0  0  0  0  0  0
    3.4737   20.9338    4.8514 H   0  0  0  0  0  0  0  0  0  0  0  0
    1.5765   20.8767    4.2610 H   0  0  0  0  0  0  0  0  0  0  0  0
    4.1968   23.7806    6.4710 H   0  0  0  0  0  0  0  0  0  0  0  0
    4.3949   21.8640    5.5836 H   0  0  0  0  0  0  0  0  0  0  0  0
    2.7564   24.9906    6.6415 H   0  0  0  0  0  0  0  0  0  0  0  0
   -5.5445   23.5425    3.4669 H   0  0  0  0  0  0  0  0  0  0  0  0
   -4.9900   26.2138    4.9499 H   0  0  0  0  0  0  0  0  0  0  0  0
   -6.8407   24.9274    3.7665 H   0  0  0  0  0  0  0  0  0  0  0  0
   -5.7012   26.3750    4.8183 H   0  0  0  0  0  0  0  0  0  0  0  0
   -5.3118   23.6682    3.5983 H   0  0  0  0  0  0  0  0  0  0  0  0
  1  2  1  0
  2  3  1  0
  3  4  1  0
  4  5  1  0
  5  6  1  0
  6  7  1  0
  6  8  1  0
  8  9  1  0
  9 10  1  0
 10 11  1  0
 11 12  1  0
 12 13  1  0
 12 14  1  0
 14 15  1  0
 15 16  1  0
 16 17  1  0
 17 18  1  0
 10 19  1  0
 19 20  1  0
 20 21  1  0
 20  2  1  0
 15  5  1  0
 18  5  1  0
 12  8  1  0
 18 15  1  0
  1 22  1  0
  1 23  1  0
  1 24  1  0
  2 25  1  0
  3 26  1  0
  3 27  1  0
  4 28  1  0
  4 29  1  0
  6 30  1  0
  7 31  1  0
  7 32  1  0
  7 33  1  0
  8 34  1  0
  9 35  1  0
  9 36  1  0
 10 37  1  0
 11 38  1  0
 11 39  1  0
 13 40  1  0
 14 41  1  0
 14 42  1  0
 16 43  1  0
 16 44  1  0
 17 45  1  0
 17 46  1  0
 18 47  1  0
 19 48  1  0
 20 49  1  0
 21 50  1  0
 21 51  1  0
 21 52  1  0
M  END
