
     RDKit          2D

 26 25  0  0  0  0  0  0  0  0999 V2000
   -2.4613   26.2324    6.1006 C   0  0  0  0  0  0  0  0  0  0  0  0
   -1.1482   26.0939    5.3888 C   0  0  0  0  0  0  0  0  0  0  0  0
    0.1649   25.9554    4.6770 C   0  0  0  0  0  0  0  0  0  0  0  0
    1.4780   25.8168    3.9652 C   0  0  0  0  0  0  0  0  0  0  0  0
    2.7910   25.6783    3.2534 C   0  0  0  0  0  0  0  0  0  0  0  0
    4.1041   25.5398    2.5416 O   0  0  0  0  0  0  0  0  0  0  0  0
    2.0722   25.6233    1.9380 O   0  0  0  0  0  0  0  0  0  0  0  0
   -0.4555   26.7692    6.5352 N   0  0  0  0  0  0  0  0  0  0  0  0
   -1.1763   26.9669    7.8356 C   0  0  0  0  0  0  0  0  0  0  0  0
   -1.6793   28.2957    7.3549 N   0  0  0  0  0  2  0  0  0  0  0  0
   -0.6734   25.6380    8.3164 N   0  0  0  0  0  2  0  0  0  0  0  0
   -3.7743   26.3709    6.8124 H   0  0  0  0  0  0  0  0  0  0  0  0
   -3.0491   26.8912    4.8880 H   0  0  0  0  0  0  0  0  0  0  0  0
   -2.5131   25.9579    6.8472 H   0  0  0  0  0  0  0  0  0  0  0  0
   -1.8409   25.4185    4.2425 H   0  0  0  0  0  0  0  0  0  0  0  0
   -0.5528   25.4960    3.4425 H   0  0  0  0  0  0  0  0  0  0  0  0
    1.0372   26.3943    5.8156 H   0  0  0  0  0  0  0  0  0  0  0  0
    2.1724   26.4807    5.1172 H   0  0  0  0  0  0  0  0  0  0  0  0
    0.7835   25.1529    2.8133 H   0  0  0  0  0  0  0  0  0  0  0  0
    3.5099   25.7333    4.5688 H   0  0  0  0  0  0  0  0  0  0  0  0
    4.1407   25.4600    1.0442 H   0  0  0  0  0  0  0  0  0  0  0  0
    2.8287   25.8362    0.6605 H   0  0  0  0  0  0  0  0  0  0  0  0
    0.9455   27.3048    6.5544 H   0  0  0  0  0  0  0  0  0  0  0  0
   -1.8972   27.1646    9.1362 H   0  0  0  0  0  0  0  0  0  0  0  0
   -2.8024   28.9787    8.0776 H   0  0  0  0  0  0  0  0  0  0  0  0
   -1.2935   24.9921    9.5198 H   0  0  0  0  0  0  0  0  0  0  0  0
  1  2  1  0
  2  3  1  0
  3  4  1  0
  4  5  1  0
  5  6  1  0
  5  7  1  0
  2  8  1  0
  8  9  1  0
  9 10  1  0
  9 11  1  0
  1 12  1  0
  1 13  1  0
  1 14  1  0
  2 15  1  0
  3 16  1  0
  3 17  1  0
  4 18  1  0
  4 19  1  0
  5 20  1  0
  6 21  1  0
  7 22  1  0
  8 23  1  0
  9 24  1  0
 10 25  1  0
 11 26  1  0
M  RAD  2  10   2  11   2
M  END
