
     RDKit          2D

 29 31  0  0  0  0  0  0  0  0999 V2000
   -0.5277   23.8958    0.9941 O   0  0  0  0  0  0  0  0  0  0  0  0
   -1.4395   23.4068   -0.0919 C   0  0  0  0  0  0  0  0  0  0  0  0
   -0.4555   23.8678   -1.1259 O   0  0  0  0  0  0  0  0  0  0  0  0
   -2.3514   22.9177   -1.1779 C   0  0  0  0  0  0  0  0  0  0  0  0
   -3.3355   22.4566   -0.1440 C   0  0  0  0  0  0  0  0  0  0  0  0
   -4.5532   21.8670    0.5038 C   0  0  0  0  0  0  0  0  0  0  0  0
   -4.3939   21.9917    1.9901 C   0  0  0  0  0  0  0  0  0  0  0  0
   -5.7354   21.3218    2.0317 C   0  0  0  0  0  0  0  0  0  0  0  0
   -7.0769   20.6519    2.0734 C   0  0  0  0  0  0  0  0  0  0  0  0
   -7.0062   20.6036    3.5710 N   0  0  0  0  0  2  0  0  0  0  0  0
   -8.3476   19.9338    3.6127 C   0  0  0  0  0  0  0  0  0  0  0  0
   -8.4184   19.9820    2.1151 N   0  0  0  0  0  2  0  0  0  0  0  0
   -3.0778   22.6583    2.2610 Al  0  0  0  0  0  3  0  0  0  0  0  0
   -2.4237   22.9457    0.9421 C   0  0  0  0  0  0  0  0  0  0  0  0
    0.7813   24.5380    0.6417 H   0  0  0  0  0  0  0  0  0  0  0  0
    0.8257   24.5230   -0.7023 H   0  0  0  0  0  0  0  0  0  0  0  0
   -1.3673   23.3787   -2.2118 H   0  0  0  0  0  0  0  0  0  0  0  0
   -3.2633   22.4286   -2.2638 H   0  0  0  0  0  0  0  0  0  0  0  0
   -4.0821   22.0457   -1.3783 H   0  0  0  0  0  0  0  0  0  0  0  0
   -4.9859   21.6078   -0.9089 H   0  0  0  0  0  0  0  0  0  0  0  0
   -5.2625   21.5149    0.5952 H   0  0  0  0  0  0  0  0  0  0  0  0
   -4.5151   21.9763    3.4851 H   0  0  0  0  0  0  0  0  0  0  0  0
   -5.7248   21.3937    3.5300 H   0  0  0  0  0  0  0  0  0  0  0  0
   -5.8279   21.2405    1.2442 H   0  0  0  0  0  0  0  0  0  0  0  0
   -7.1475   20.7002    0.5759 H   0  0  0  0  0  0  0  0  0  0  0  0
   -9.6891   19.2639    3.6544 H   0  0  0  0  0  0  0  0  0  0  0  0
   -8.2770   19.8855    5.1102 H   0  0  0  0  0  0  0  0  0  0  0  0
   -2.5147   22.9810    3.6133 H   0  0  0  0  0  0  0  0  0  0  0  0
   -1.3691   23.5009    1.8528 H   0  0  0  0  0  0  0  0  0  0  0  0
  1  2  1  0
  2  3  1  0
  2  4  1  0
  4  5  1  0
  5  6  1  0
  6  7  1  0
  7  8  1  0
  8  9  1  0
  9 10  1  0
 10 11  1  0
 11 12  1  0
  7 13  1  0
 13 14  1  0
 14  2  1  0
 14  5  1  0
 12  9  1  0
  1 15  1  0
  3 16  1  0
  4 17  1  0
  4 18  1  0
  5 19  1  0
  6 20  1  0
  6 21  1  0
  7 22  1  0
  8 23  1  0
  8 24  1  0
  9 25  1  0
 11 26  1  0
 11 27  1  0
 13 28  1  0
 14 29  1  0
M  RAD  2  10   2  12   2
M  END
