
     RDKit          2D

 37 42  0  0  0  0  0  0  0  0999 V2000
   17.4424  -22.7178   -8.3693 N   0  0  0  0  0  0  0  0  0  0  0  0
   17.0231  -21.8271   -9.5010 C   0  0  0  0  0  0  0  0  0  0  0  0
   16.6039  -20.9364  -10.6328 C   0  0  0  0  0  0  0  0  0  0  0  0
   17.8266  -21.0210  -11.4975 C   0  0  0  0  0  0  0  0  0  0  0  0
   18.5648  -20.6346  -12.7448 C   0  0  0  0  0  0  0  0  0  0  0  0
   19.6274  -20.5261  -13.7979 C   0  0  0  0  0  0  0  0  0  0  0  0
   19.1175  -19.6207  -14.8796 C   0  0  0  0  0  0  0  0  0  0  0  0
   20.3402  -19.7053  -15.7443 C   0  0  0  0  0  0  0  0  0  0  0  0
   19.6988  -18.7861  -16.7411 C   0  0  0  0  0  0  0  0  0  0  0  0
   20.9216  -18.8706  -17.6059 C   0  0  0  0  0  0  0  0  0  0  0  0
   22.3011  -19.4035  -17.8564 C   0  0  0  0  0  0  0  0  0  0  0  0
   21.5629  -19.7898  -16.6091 C   0  0  0  0  0  0  0  0  0  0  0  0
   18.3518  -18.6976  -15.7805 C   0  0  0  0  0  0  0  0  0  0  0  0
   17.7396  -19.1695  -14.4950 C   0  0  0  0  0  0  0  0  0  0  0  0
   17.3980  -19.7961  -13.1756 C   0  0  0  0  0  0  0  0  0  0  0  0
   16.6598  -20.1825  -11.9284 C   0  0  0  0  0  0  0  0  0  0  0  0
   18.7913  -23.3735   -8.3910 H   0  0  0  0  0  0  0  0  0  0  0  0
   16.5128  -22.9528   -7.2157 H   0  0  0  0  0  0  0  0  0  0  0  0
   18.3802  -22.1763  -10.0363 H   0  0  0  0  0  0  0  0  0  0  0  0
   15.7074  -21.5847   -8.8228 H   0  0  0  0  0  0  0  0  0  0  0  0
   15.2355  -20.5425  -10.1611 H   0  0  0  0  0  0  0  0  0  0  0  0
   18.8793  -21.9051  -10.8974 H   0  0  0  0  0  0  0  0  0  0  0  0
   19.6017  -21.5231  -12.1242 H   0  0  0  0  0  0  0  0  0  0  0  0
   20.3931  -21.4493  -12.8970 H   0  0  0  0  0  0  0  0  0  0  0  0
   20.4750  -20.6547  -14.2814 H   0  0  0  0  0  0  0  0  0  0  0  0
   20.8556  -20.3106  -15.1644 H   0  0  0  0  0  0  0  0  0  0  0  0
   19.2780  -18.1829  -17.3951 H   0  0  0  0  0  0  0  0  0  0  0  0
   18.9858  -18.6242  -16.4234 H   0  0  0  0  0  0  0  0  0  0  0  0
   20.6184  -18.0046  -18.7925 H   0  0  0  0  0  0  0  0  0  0  0  0
   22.5958  -18.7537  -19.1758 H   0  0  0  0  0  0  0  0  0  0  0  0
   23.5784  -20.1620  -17.6486 H   0  0  0  0  0  0  0  0  0  0  0  0
   22.4989  -20.6997  -15.8700 H   0  0  0  0  0  0  0  0  0  0  0  0
   18.7877  -18.4693  -16.5170 H   0  0  0  0  0  0  0  0  0  0  0  0
   17.2393  -17.8342  -16.2973 H   0  0  0  0  0  0  0  0  0  0  0  0
   16.4448  -18.4298  -14.6571 H   0  0  0  0  0  0  0  0  0  0  0  0
   16.1302  -19.0284  -13.4061 H   0  0  0  0  0  0  0  0  0  0  0  0
   15.3417  -19.4727  -12.0217 H   0  0  0  0  0  0  0  0  0  0  0  0
  1  2  1  0
  2  3  1  0
  3  4  1  0
  4  5  1  0
  5  6  1  0
  6  7  1  0
  7  8  1  0
  8  9  1  0
  9 10  1  0
 10 11  1  0
 11 12  1  0
  7 13  1  0
 13 14  1  0
 14 15  1  0
 15 16  1  0
 16  3  1  0
 16  4  1  0
 15  5  1  0
 14  7  1  0
 12  8  1  0
 12 10  1  0
  1 17  1  0
  1 18  1  0
  2 19  1  0
  2 20  1  0
  3 21  1  0
  4 22  1  0
  5 23  1  0
  6 24  1  0
  6 25  1  0
  8 26  1  0
  9 27  1  0
  9 28  1  0
 10 29  1  0
 11 30  1  0
 11 31  1  0
 12 32  1  0
 13 33  1  0
 13 34  1  0
 14 35  1  0
 15 36  1  0
 16 37  1  0
M  END
