
     RDKit          2D

 47 50  0  0  0  0  0  0  0  0999 V2000
   16.6615  -20.0498   -7.5597 C   0  0  0  0  0  0  0  0  0  0  0  0
   18.0145  -19.4044   -7.5076 C   0  0  0  0  0  0  0  0  0  0  0  0
   18.6587  -18.3594   -6.6454 C   0  0  0  0  0  0  0  0  0  0  0  0
   19.9279  -18.4914   -7.4338 C   0  0  0  0  0  0  0  0  0  0  0  0
   19.2837  -19.5363   -8.2959 C   0  0  0  0  0  0  0  0  0  0  0  0
   20.5531  -19.6683   -9.0843 C   0  0  0  0  0  0  0  0  0  0  0  0
   21.7418  -18.8211   -8.7392 C   0  0  0  0  0  0  0  0  0  0  0  0
   21.8224  -19.8003   -9.8727 C   0  0  0  0  0  0  0  0  0  0  0  0
   20.6335  -20.6475  -10.2178 C   0  0  0  0  0  0  0  0  0  0  0  0
   19.2499  -21.2242  -10.1625 C   0  0  0  0  0  0  0  0  0  0  0  0
   17.8663  -21.8009  -10.1074 C   0  0  0  0  0  0  0  0  0  0  0  0
   17.5408  -20.9087   -8.9463 C   0  0  0  0  0  0  0  0  0  0  0  0
   16.1572  -21.4854   -8.8911 C   0  0  0  0  0  0  0  0  0  0  0  0
   16.4828  -22.3775  -10.0522 C   0  0  0  0  0  0  0  0  0  0  0  0
   16.8083  -23.2697  -11.2132 C   0  0  0  0  0  0  0  0  0  0  0  0
   17.1338  -24.1619  -12.3743 Sb  0  0  0  0  0  3  0  0  0  0  0  0
   16.0976  -25.1057  -12.9085 Se  0  0  0  0  0  2  0  0  0  0  0  0
   16.4231  -25.9979  -14.0695 C   0  0  0  0  0  0  0  0  0  0  0  0
   17.8072  -25.4223  -14.1238 C   0  0  0  0  0  0  0  0  0  0  0  0
   15.0390  -26.5735  -14.0154 O   0  0  0  0  0  0  0  0  0  0  0  0
   15.6022  -19.6520   -6.5751 H   0  0  0  0  0  0  0  0  0  0  0  0
   16.1577  -20.8980   -8.2691 H   0  0  0  0  0  0  0  0  0  0  0  0
   17.3893  -18.2275   -5.8571 H   0  0  0  0  0  0  0  0  0  0  0  0
   19.3027  -17.3146   -5.7833 H   0  0  0  0  0  0  0  0  0  0  0  0
   20.5721  -17.4465   -6.5717 H   0  0  0  0  0  0  0  0  0  0  0  0
   20.6803  -18.3579   -7.6607 H   0  0  0  0  0  0  0  0  0  0  0  0
   18.6397  -20.5812   -9.1581 H   0  0  0  0  0  0  0  0  0  0  0  0
   21.5305  -18.3634   -8.1217 H   0  0  0  0  0  0  0  0  0  0  0  0
   23.1254  -18.2444   -8.7944 H   0  0  0  0  0  0  0  0  0  0  0  0
   23.0916  -19.9322  -10.6610 H   0  0  0  0  0  0  0  0  0  0  0  0
   21.1947  -21.4264  -11.3704 H   0  0  0  0  0  0  0  0  0  0  0  0
   18.9243  -20.3317   -9.0017 H   0  0  0  0  0  0  0  0  0  0  0  0
   19.5756  -22.1166  -11.3234 H   0  0  0  0  0  0  0  0  0  0  0  0
   18.3582  -22.6161  -11.2665 H   0  0  0  0  0  0  0  0  0  0  0  0
   16.8902  -20.1826   -7.8063 H   0  0  0  0  0  0  0  0  0  0  0  0
   18.9244  -20.3320   -9.0015 H   0  0  0  0  0  0  0  0  0  0  0  0
   14.7736  -22.0621   -8.8358 H   0  0  0  0  0  0  0  0  0  0  0  0
   15.8317  -20.5932   -7.7300 H   0  0  0  0  0  0  0  0  0  0  0  0
   15.0992  -22.9542   -9.9969 H   0  0  0  0  0  0  0  0  0  0  0  0
   15.8472  -24.2972  -10.6931 H   0  0  0  0  0  0  0  0  0  0  0  0
   17.8019  -22.3586  -11.8710 H   0  0  0  0  0  0  0  0  0  0  0  0
   18.4956  -24.1101  -13.0012 H   0  0  0  0  0  0  0  0  0  0  0  0
   16.7487  -26.8900  -15.2306 H   0  0  0  0  0  0  0  0  0  0  0  0
   19.1913  -24.8468  -14.1780 H   0  0  0  0  0  0  0  0  0  0  0  0
   18.0209  -26.0622  -15.4635 H   0  0  0  0  0  0  0  0  0  0  0  0
   17.9349  -24.6621  -12.8370 H   0  0  0  0  0  0  0  0  0  0  0  0
   14.6283  -27.6327  -14.9948 H   0  0  0  0  0  0  0  0  0  0  0  0
  1  2  2  3
  2  3  1  0
  3  4  1  0
  4  5  1  0
  5  6  1  0
  6  7  1  0
  7  8  1  0
  8  9  1  0
  9 10  1  0
 10 11  1  0
 11 12  1  0
 12 13  1  0
 13 14  1  0
 14 15  1  0
 15 16  1  0
 16 17  1  0
 17 18  1  0
 18 19  1  0
 18 20  1  0
  5  2  1  0
  8  6  1  0
 14 11  1  0
  9  6  1  0
  1 21  1  0
  1 22  1  0
  3 23  1  0
  3 24  1  0
  4 25  1  0
  4 26  1  0
  5 27  1  0
  7 28  1  0
  7 29  1  0
  8 30  1  0
  9 31  1  0
 10 32  1  0
 10 33  1  0
 11 34  1  0
 12 35  1  0
 12 36  1  0
 13 37  1  0
 13 38  1  0
 14 39  1  0
 15 40  1  0
 15 41  1  0
 16 42  1  0
 18 43  1  0
 19 44  1  0
 19 45  1  0
 19 46  1  0
 20 47  1  0
M  END
