
     RDKit          2D

 54 57  0  0  0  0  0  0  0  0999 V2000
   -0.1039   25.6139    6.7644 C   0  0  0  0  0  0  0  0  0  0  0  0
   -1.5539   25.8949    6.5030 C   0  0  0  0  0  0  0  0  0  0  0  0
   -3.0040   26.1759    6.2417 C   0  0  0  0  0  0  0  0  0  0  0  0
   -4.4541   26.4570    5.9804 C   0  0  0  0  0  0  0  0  0  0  0  0
   -5.9041   26.7380    5.7190 O   0  0  0  0  0  0  0  0  0  0  0  0
   -2.7783   25.9741    4.7726 C   0  0  0  0  0  0  0  0  0  0  0  0
   -1.3113   25.6616    4.7749 C   0  0  0  0  0  0  0  0  0  0  0  0
    0.0572   25.3168    4.2667 C   0  0  0  0  0  0  0  0  0  0  0  0
    1.4257   24.9719    3.7585 C   0  0  0  0  0  0  0  0  0  0  0  0
    2.7942   24.6270    3.2503 C   0  0  0  0  0  0  0  0  0  0  0  0
    3.5536   24.6015    4.5436 C   0  0  0  0  0  0  0  0  0  0  0  0
    4.6966   24.4593    5.5046 C   0  0  0  0  0  0  0  0  0  0  0  0
    4.9221   24.2566    4.0355 C   0  0  0  0  0  0  0  0  0  0  0  0
    3.8991   24.2910    2.2930 C   0  0  0  0  0  0  0  0  0  0  0  0
    2.5102   24.5328    1.7805 C   0  0  0  0  0  0  0  0  0  0  0  0
   -2.0704   25.6881    3.4815 Al  0  0  0  0  0  3  0  0  0  0  0  0
   -2.1000   25.5382    1.9893 C   0  0  0  0  0  0  0  0  0  0  0  0
   -2.1296   25.3882    0.4970 C   0  0  0  0  0  0  0  0  0  0  0  0
   -2.2637   24.7483   -0.8529 C   0  0  0  0  0  0  0  0  0  0  0  0
   -2.4410   23.9249    0.3884 C   0  0  0  0  0  0  0  0  0  0  0  0
   -2.7252   22.5861   -0.2254 C   0  0  0  0  0  0  0  0  0  0  0  0
    1.3462   25.3328    7.0257 H   0  0  0  0  0  0  0  0  0  0  0  0
    0.2963   25.3762    5.3384 H   0  0  0  0  0  0  0  0  0  0  0  0
   -0.3289   25.8188    8.2332 H   0  0  0  0  0  0  0  0  0  0  0  0
   -1.7791   26.0988    7.9719 H   0  0  0  0  0  0  0  0  0  0  0  0
   -1.2513   25.7536    5.7792 H   0  0  0  0  0  0  0  0  0  0  0  0
   -3.2297   26.3778    7.7108 H   0  0  0  0  0  0  0  0  0  0  0  0
   -4.6796   26.6592    7.4495 H   0  0  0  0  0  0  0  0  0  0  0  0
   -4.4197   26.3356    4.8942 H   0  0  0  0  0  0  0  0  0  0  0  0
   -6.4339   26.7031    4.3162 H   0  0  0  0  0  0  0  0  0  0  0  0
   -3.7411   26.1274    4.2772 H   0  0  0  0  0  0  0  0  0  0  0  0
   -0.8059   25.6696    5.8798 H   0  0  0  0  0  0  0  0  0  0  0  0
    0.7497   25.3083    5.5973 H   0  0  0  0  0  0  0  0  0  0  0  0
   -0.3016   25.2412    2.8122 H   0  0  0  0  0  0  0  0  0  0  0  0
    0.7334   24.9806    2.4279 H   0  0  0  0  0  0  0  0  0  0  0  0
    1.7844   25.0472    5.2131 H   0  0  0  0  0  0  0  0  0  0  0  0
    2.5746   24.9246    5.6334 H   0  0  0  0  0  0  0  0  0  0  0  0
    3.9887   24.7459    6.7956 H   0  0  0  0  0  0  0  0  0  0  0  0
    6.0854   24.2175    6.0171 H   0  0  0  0  0  0  0  0  0  0  0  0
    6.3892   23.9445    4.0378 H   0  0  0  0  0  0  0  0  0  0  0  0
    4.8156   24.1224    2.5453 H   0  0  0  0  0  0  0  0  0  0  0  0
    5.1457   24.1113    3.1076 H   0  0  0  0  0  0  0  0  0  0  0  0
    4.6070   24.0044    1.0019 H   0  0  0  0  0  0  0  0  0  0  0  0
    2.7358   24.3301    0.3114 H   0  0  0  0  0  0  0  0  0  0  0  0
    1.0504   24.8242    1.5963 H   0  0  0  0  0  0  0  0  0  0  0  0
   -2.4027   24.1074    2.3228 H   0  0  0  0  0  0  0  0  0  0  0  0
   -1.7973   26.9689    1.6557 H   0  0  0  0  0  0  0  0  0  0  0  0
   -1.8283   26.7995    0.0875 H   0  0  0  0  0  0  0  0  0  0  0  0
   -2.0091   25.9372   -1.7313 H   0  0  0  0  0  0  0  0  0  0  0  0
   -2.4579   23.8277   -2.0211 H   0  0  0  0  0  0  0  0  0  0  0  0
   -2.5559   23.3960    1.7873 H   0  0  0  0  0  0  0  0  0  0  0  0
   -3.0094   21.2473   -0.8391 H   0  0  0  0  0  0  0  0  0  0  0  0
   -3.4159   22.1552    1.0344 H   0  0  0  0  0  0  0  0  0  0  0  0
   -2.0743   22.8507   -1.5507 H   0  0  0  0  0  0  0  0  0  0  0  0
  1  2  1  0
  2  3  1  0
  3  4  1  0
  4  5  1  0
  3  6  1  0
  6  7  1  0
  7  8  1  0
  8  9  1  0
  9 10  1  0
 10 11  1  0
 11 12  1  0
 12 13  1  0
 10 14  1  0
 14 15  1  0
  7 16  1  0
 16 17  1  0
 17 18  1  0
 18 19  1  0
 19 20  1  0
 20 21  1  0
 16  6  1  0
 20 18  1  0
 15 10  1  0
 13 11  1  0
  1 22  1  0
  1 23  1  0
  1 24  1  0
  2 25  1  0
  2 26  1  0
  3 27  1  0
  4 28  1  0
  4 29  1  0
  5 30  1  0
  6 31  1  0
  7 32  1  0
  8 33  1  0
  8 34  1  0
  9 35  1  0
  9 36  1  0
 11 37  1  0
 12 38  1  0
 12 39  1  0
 13 40  1  0
 13 41  1  0
 14 42  1  0
 14 43  1  0
 15 44  1  0
 15 45  1  0
 17 46  1  0
 17 47  1  0
 18 48  1  0
 19 49  1  0
 19 50  1  0
 20 51  1  0
 21 52  1  0
 21 53  1  0
 21 54  1  0
M  END
