
     RDKit          2D

 70 74  0  0  0  0  0  0  0  0999 V2000
   12.8995  -21.4893   -3.7841 C   0  0  0  0  0  0  0  0  0  0  0  0
   13.4602  -20.5429   -2.7643 C   0  0  0  0  0  0  0  0  0  0  0  0
   14.0210  -19.5965   -1.7445 C   0  0  0  0  0  0  0  0  0  0  0  0
   14.8415  -20.7903   -3.2941 C   0  0  0  0  0  0  0  0  0  0  0  0
   16.2229  -21.0378   -3.8240 C   0  0  0  0  0  0  0  0  0  0  0  0
   17.6041  -21.2852   -4.3539 C   0  0  0  0  0  0  0  0  0  0  0  0
   18.2702  -21.8023   -3.1134 C   0  0  0  0  0  0  0  0  0  0  0  0
   19.0502  -21.6824   -4.3891 C   0  0  0  0  0  0  0  0  0  0  0  0
   19.3660  -21.3892   -5.8258 C   0  0  0  0  0  0  0  0  0  0  0  0
   19.6818  -21.0959   -7.2626 C   0  0  0  0  0  0  0  0  0  0  0  0
   18.6162  -20.5553   -8.1694 N   0  0  0  0  0  0  0  0  0  0  0  0
   18.9320  -20.2620   -9.6062 C   0  0  0  0  0  0  0  0  0  0  0  0
   20.2684  -20.7610   -9.1424 C   0  0  0  0  0  0  0  0  0  0  0  0
   20.0820  -20.3299  -10.5670 N   0  0  0  0  0  0  0  0  0  0  0  0
   20.3977  -20.0366  -12.0038 C   0  0  0  0  0  0  0  0  0  0  0  0
   21.8388  -20.3787  -12.2407 C   0  0  0  0  0  0  0  0  0  0  0  0
   21.0003  -19.8444  -13.3639 N   0  0  0  0  0  0  0  0  0  0  0  0
   19.9348  -19.3037  -14.2707 C   0  0  0  0  0  0  0  0  0  0  0  0
   18.3952  -19.0205  -13.7080 C   0  0  0  0  0  0  0  0  0  0  0  0
   17.0139  -18.7731  -13.1781 C   0  0  0  0  0  0  0  0  0  0  0  0
   16.2341  -18.8930  -11.9024 C   0  0  0  0  0  0  0  0  0  0  0  0
   16.4205  -19.3242  -10.4779 C   0  0  0  0  0  0  0  0  0  0  0  0
   14.9918  -18.8870  -10.6116 C   0  0  0  0  0  0  0  0  0  0  0  0
   13.5632  -18.4498  -10.7452 O   0  0  0  0  0  0  0  0  0  0  0  0
   15.7874  -19.5046   -9.1300 C   0  0  0  0  0  0  0  0  0  0  0  0
   15.1544  -19.6850   -7.7822 C   0  0  0  0  0  0  0  0  0  0  0  0
   14.4831  -19.0034   -9.6756 C   0  0  0  0  0  0  0  0  0  0  0  0
   17.4859  -19.8648   -9.5710 N   0  0  0  0  0  0  0  0  0  0  0  0
   19.7316  -19.5195  -13.2442 N   0  0  0  0  0  0  0  0  0  0  0  0
   12.3389  -22.4356   -4.8039 H   0  0  0  0  0  0  0  0  0  0  0  0
   14.2187  -21.5013   -4.4982 H   0  0  0  0  0  0  0  0  0  0  0  0
   12.0861  -21.5504   -3.4390 H   0  0  0  0  0  0  0  0  0  0  0  0
   12.0789  -20.2955   -2.2344 H   0  0  0  0  0  0  0  0  0  0  0  0
   14.5817  -18.6501   -0.7247 H   0  0  0  0  0  0  0  0  0  0  0  0
   13.0152  -20.0804   -0.7423 H   0  0  0  0  0  0  0  0  0  0  0  0
   14.6508  -19.2448   -2.2584 H   0  0  0  0  0  0  0  0  0  0  0  0
   15.0856  -19.9415   -3.3601 H   0  0  0  0  0  0  0  0  0  0  0  0
   14.7964  -21.6748   -3.3045 H   0  0  0  0  0  0  0  0  0  0  0  0
   16.4603  -21.4323   -2.5550 H   0  0  0  0  0  0  0  0  0  0  0  0
   15.7874  -20.5657   -5.1796 H   0  0  0  0  0  0  0  0  0  0  0  0
   17.2802  -20.8641   -5.5950 H   0  0  0  0  0  0  0  0  0  0  0  0
   19.3357  -22.3430   -2.2065 H   0  0  0  0  0  0  0  0  0  0  0  0
   17.3395  -21.8006   -2.1356 H   0  0  0  0  0  0  0  0  0  0  0  0
   20.3865  -22.1814   -3.9252 H   0  0  0  0  0  0  0  0  0  0  0  0
   20.6543  -21.7915   -5.7966 H   0  0  0  0  0  0  0  0  0  0  0  0
   17.9626  -20.9027   -6.0350 H   0  0  0  0  0  0  0  0  0  0  0  0
   20.8006  -21.2963   -7.6919 H   0  0  0  0  0  0  0  0  0  0  0  0
   20.2942  -21.0487   -8.0878 H   0  0  0  0  0  0  0  0  0  0  0  0
   21.7144  -21.1582   -9.1776 H   0  0  0  0  0  0  0  0  0  0  0  0
   22.2232  -20.8513  -10.8700 H   0  0  0  0  0  0  0  0  0  0  0  0
   23.1465  -20.5568  -12.9538 H   0  0  0  0  0  0  0  0  0  0  0  0
   21.0207  -19.3339  -15.3051 H   0  0  0  0  0  0  0  0  0  0  0  0
   19.2464  -18.7839  -15.4978 H   0  0  0  0  0  0  0  0  0  0  0  0
   18.2841  -18.6070  -15.1457 H   0  0  0  0  0  0  0  0  0  0  0  0
   16.9953  -18.3828  -14.6263 H   0  0  0  0  0  0  0  0  0  0  0  0
   15.6808  -18.2728  -13.6500 H   0  0  0  0  0  0  0  0  0  0  0  0
   15.2894  -18.3529  -12.9349 H   0  0  0  0  0  0  0  0  0  0  0  0
   14.7886  -18.5341  -11.7241 H   0  0  0  0  0  0  0  0  0  0  0  0
   14.4187  -19.0956   -9.2412 H   0  0  0  0  0  0  0  0  0  0  0  0
   14.8737  -18.4668  -12.0467 H   0  0  0  0  0  0  0  0  0  0  0  0
   12.8894  -17.9318  -11.9812 H   0  0  0  0  0  0  0  0  0  0  0  0
   17.0048  -20.0240   -8.4243 H   0  0  0  0  0  0  0  0  0  0  0  0
   14.5213  -19.8654   -6.4343 H   0  0  0  0  0  0  0  0  0  0  0  0
   16.5221  -20.1749   -7.4088 H   0  0  0  0  0  0  0  0  0  0  0  0
   16.3677  -20.2188   -7.0802 H   0  0  0  0  0  0  0  0  0  0  0  0
   13.4924  -18.4709  -10.6680 H   0  0  0  0  0  0  0  0  0  0  0  0
   15.2704  -18.8854  -10.9469 H   0  0  0  0  0  0  0  0  0  0  0  0
   14.9525  -18.7633  -11.0798 H   0  0  0  0  0  0  0  0  0  0  0  0
   17.0968  -20.1339   -8.1476 H   0  0  0  0  0  0  0  0  0  0  0  0
   20.7114  -19.4931  -14.3798 H   0  0  0  0  0  0  0  0  0  0  0  0
  1  2  1  0
  2  3  1  0
  2  4  1  0
  4  5  1  0
  5  6  1  0
  6  7  1  0
  7  8  1  0
  8  9  1  0
  9 10  1  0
 10 11  2  3
 12 11  1  0
 12 13  1  0
 13 14  1  0
 14 15  1  0
 15 16  1  6
 16 17  1  0
 17 18  1  0
 18 19  1  0
 19 20  1  0
 20 21  1  0
 21 22  1  0
 22 23  1  6
 23 24  1  0
 22 25  1  0
 25 26  1  0
 25 27  1  0
 22 28  1  0
 19 29  1  0
  8  6  1  0
 14 12  1  0
 17 15  1  0
 12 28  1  1
 29 15  1  0
  1 30  1  0
  1 31  1  0
  1 32  1  0
  2 33  1  0
  3 34  1  0
  3 35  1  0
  3 36  1  0
  4 37  1  0
  4 38  1  0
  5 39  1  0
  5 40  1  0
  6 41  1  6
  7 42  1  0
  7 43  1  0
  8 44  1  6
  9 45  1  0
  9 46  1  0
 10 47  1  0
 13 48  1  0
 13 49  1  0
 16 50  1  0
 16 51  1  0
 18 52  1  0
 18 53  1  0
 19 54  1  6
 20 55  1  0
 20 56  1  0
 21 57  1  0
 21 58  1  0
 23 59  1  0
 23 60  1  0
 24 61  1  0
 25 62  1  0
 26 63  1  0
 26 64  1  0
 26 65  1  0
 27 66  1  0
 27 67  1  0
 27 68  1  0
 28 69  1  0
 29 70  1  0
M  END
