
     RDKit          2D

 70 78  0  0  0  0  0  0  0  0999 V2000
       nan       nan       nan C   0  0  0  0  0  0  0  0  0  0  0  0
       nan       nan       nan C   0  0  0  0  0  0  0  0  0  0  0  0
       nan       nan       nan O   0  0  0  0  0  0  0  0  0  0  0  0
       nan       nan       nan C   0  0  0  0  0  0  0  0  0  0  0  0
       nan       nan       nan C   0  0  0  0  0  0  0  0  0  0  0  0
       nan       nan       nan C   0  0  0  0  0  0  0  0  0  0  0  0
       nan       nan       nan C   0  0  0  0  0  0  0  0  0  0  0  0
       nan       nan       nan O   0  0  0  0  0  0  0  0  0  0  0  0
       nan       nan       nan C   0  0  0  0  0  0  0  0  0  0  0  0
       nan       nan       nan C   0  0  0  0  0  0  0  0  0  0  0  0
       nan       nan       nan C   0  0  0  0  0  0  0  0  0  0  0  0
       nan       nan       nan F   0  0  0  0  0  0  0  0  0  0  0  0
       nan       nan       nan C   0  0  0  0  0  0  0  0  0  0  0  0
       nan       nan       nan C   0  0  0  0  0  0  0  0  0  0  0  0
       nan       nan       nan C   0  0  0  0  0  0  0  0  0  0  0  0
       nan       nan       nan C   0  0  0  0  0  0  0  0  0  0  0  0
       nan       nan       nan C   0  0  0  0  0  0  0  0  0  0  0  0
       nan       nan       nan C   0  0  0  0  0  0  0  0  0  0  0  0
       nan       nan       nan C   0  0  0  0  0  0  0  0  0  0  0  0
       nan       nan       nan C   0  0  0  0  0  0  0  0  0  0  0  0
       nan       nan       nan C   0  0  0  0  0  0  0  0  0  0  0  0
       nan       nan       nan N   0  0  0  0  0  0  0  0  0  0  0  0
       nan       nan       nan C   0  0  0  0  0  0  0  0  0  0  0  0
       nan       nan       nan C   0  0  0  0  0  0  0  0  0  0  0  0
       nan       nan       nan C   0  0  0  0  0  0  0  0  0  0  0  0
       nan       nan       nan C   0  0  0  0  0  0  0  0  0  0  0  0
       nan       nan       nan Si  0  0  0  0  0  4  0  0  0  0  0  0
       nan       nan       nan C   0  0  0  0  0  0  0  0  0  0  0  0
       nan       nan       nan C   0  0  0  0  0  0  0  0  0  0  0  0
       nan       nan       nan C   0  0  0  0  0  0  0  0  0  0  0  0
       nan       nan       nan O   0  0  0  0  0  0  0  0  0  0  0  0
       nan       nan       nan C   0  0  0  0  0  0  0  0  0  0  0  0
       nan       nan       nan H   0  0  0  0  0  0  0  0  0  0  0  0
       nan       nan       nan H   0  0  0  0  0  0  0  0  0  0  0  0
       nan       nan       nan H   0  0  0  0  0  0  0  0  0  0  0  0
       nan       nan       nan H   0  0  0  0  0  0  0  0  0  0  0  0
       nan       nan       nan H   0  0  0  0  0  0  0  0  0  0  0  0
       nan       nan       nan H   0  0  0  0  0  0  0  0  0  0  0  0
       nan       nan       nan H   0  0  0  0  0  0  0  0  0  0  0  0
       nan       nan       nan H   0  0  0  0  0  0  0  0  0  0  0  0
       nan       nan       nan H   0  0  0  0  0  0  0  0  0  0  0  0
       nan       nan       nan H   0  0  0  0  0  0  0  0  0  0  0  0
       nan       nan       nan H   0  0  0  0  0  0  0  0  0  0  0  0
       nan       nan       nan H   0  0  0  0  0  0  0  0  0  0  0  0
       nan       nan       nan H   0  0  0  0  0  0  0  0  0  0  0  0
       nan       nan       nan H   0  0  0  0  0  0  0  0  0  0  0  0
       nan       nan       nan H   0  0  0  0  0  0  0  0  0  0  0  0
       nan       nan       nan H   0  0  0  0  0  0  0  0  0  0  0  0
       nan       nan       nan H   0  0  0  0  0  0  0  0  0  0  0  0
       nan       nan       nan H   0  0  0  0  0  0  0  0  0  0  0  0
       nan       nan       nan H   0  0  0  0  0  0  0  0  0  0  0  0
       nan       nan       nan H   0  0  0  0  0  0  0  0  0  0  0  0
       nan       nan       nan H   0  0  0  0  0  0  0  0  0  0  0  0
       nan       nan       nan H   0  0  0  0  0  0  0  0  0  0  0  0
       nan       nan       nan H   0  0  0  0  0  0  0  0  0  0  0  0
       nan       nan       nan H   0  0  0  0  0  0  0  0  0  0  0  0
       nan       nan       nan H   0  0  0  0  0  0  0  0  0  0  0  0
       nan       nan       nan H   0  0  0  0  0  0  0  0  0  0  0  0
       nan       nan       nan H   0  0  0  0  0  0  0  0  0  0  0  0
       nan       nan       nan H   0  0  0  0  0  0  0  0  0  0  0  0
       nan       nan       nan H   0  0  0  0  0  0  0  0  0  0  0  0
       nan       nan       nan H   0  0  0  0  0  0  0  0  0  0  0  0
       nan       nan       nan H   0  0  0  0  0  0  0  0  0  0  0  0
       nan       nan       nan H   0  0  0  0  0  0  0  0  0  0  0  0
       nan       nan       nan H   0  0  0  0  0  0  0  0  0  0  0  0
       nan       nan       nan H   0  0  0  0  0  0  0  0  0  0  0  0
       nan       nan       nan H   0  0  0  0  0  0  0  0  0  0  0  0
       nan       nan       nan H   0  0  0  0  0  0  0  0  0  0  0  0
       nan       nan       nan H   0  0  0  0  0  0  0  0  0  0  0  0
       nan       nan       nan H   0  0  0  0  0  0  0  0  0  0  0  0
  1  2  1  0
  2  3  1  0
  3  4  1  0
  4  5  1  0
  5  6  1  0
  6  7  1  0
  7  8  1  0
  7  9  1  0
  9 10  1  0
 10 11  1  0
 11 12  1  0
 10 13  1  0
 13 14  1  0
 14 15  1  0
  4 16  1  0
 16 17  1  0
 17 18  1  0
 18 19  1  0
 19 20  1  0
 20 21  1  0
 21 22  1  0
 22 23  1  0
 23 24  1  0
 24 25  1  0
 25 26  1  0
 26 27  1  0
 27 28  1  0
 28 29  1  0
 16 30  1  0
 30 31  1  0
 31 32  1  0
 15 13  1  0
 32 16  1  0
 19 17  1  0
 22 20  1  0
 28 24  1  0
 27 18  1  0
 23 20  1  0
 29 24  1  0
 23 21  1  0
  1 33  1  0
  1 34  1  0
  1 35  1  0
  2 36  1  0
  2 37  1  0
  4 38  1  0
  5 39  1  0
  5 40  1  0
  6 41  1  0
  6 42  1  0
  7 43  1  0
  8 44  1  0
  9 45  1  0
  9 46  1  0
 10 47  1  0
 11 48  1  0
 11 49  1  0
 13 50  1  0
 14 51  1  0
 14 52  1  0
 15 53  1  0
 15 54  1  0
 17 55  1  0
 18 56  1  0
 19 57  1  0
 21 58  1  0
 25 59  1  0
 25 60  1  0
 26 61  1  0
 26 62  1  0
 27 63  1  0
 28 64  1  0
 29 65  1  0
 29 66  1  0
 30 67  1  0
 30 68  1  0
 32 69  1  0
 32 70  1  0
M  END
