
     RDKit          2D

 50 54  0  0  0  0  0  0  0  0999 V2000
   17.7177  -26.8756   -7.8883 O   0  0  0  0  0  0  0  0  0  0  0  0
   17.7255  -25.7931   -8.9266 C   0  0  0  0  0  0  0  0  0  0  0  0
   16.5910  -24.8144   -8.9984 C   0  0  0  0  0  0  0  0  0  0  0  0
   15.2977  -24.1291   -8.6698 C   0  0  0  0  0  0  0  0  0  0  0  0
   14.8555  -22.9391   -9.4688 O   0  0  0  0  0  0  0  0  0  0  0  0
   15.7065  -22.4345  -10.5963 C   0  0  0  0  0  0  0  0  0  0  0  0
   16.9996  -23.1198  -10.9248 C   0  0  0  0  0  0  0  0  0  0  0  0
   17.4419  -24.3098  -10.1258 C   0  0  0  0  0  0  0  0  0  0  0  0
   18.6799  -24.4141  -10.9664 C   0  0  0  0  0  0  0  0  0  0  0  0
   18.2376  -23.2241  -11.7654 C   0  0  0  0  0  0  0  0  0  0  0  0
   17.7953  -22.0341  -12.5644 C   0  0  0  0  0  0  0  0  0  0  0  0
   19.0327  -22.1392  -13.4058 O   0  0  0  0  0  0  0  0  0  0  0  0
   18.5904  -20.9492  -14.2047 C   0  0  0  0  0  0  0  0  0  0  0  0
   17.5888  -19.8662  -14.4760 C   0  0  0  0  0  0  0  0  0  0  0  0
   17.3531  -20.8442  -13.3634 C   0  0  0  0  0  0  0  0  0  0  0  0
   16.0434  -20.4346  -12.7574 C   0  0  0  0  0  0  0  0  0  0  0  0
   14.7338  -20.0252  -12.1515 C   0  0  0  0  0  0  0  0  0  0  0  0
   13.4242  -19.6157  -11.5455 C   0  0  0  0  0  0  0  0  0  0  0  0
   12.1145  -19.2062  -10.9396 C   0  0  0  0  0  0  0  0  0  0  0  0
   10.8049  -18.7967  -10.3337 C   0  0  0  0  0  0  0  0  0  0  0  0
    9.6108  -18.7958   -9.4258 C   0  0  0  0  0  0  0  0  0  0  0  0
   10.6828  -19.8308   -9.2539 C   0  0  0  0  0  0  0  0  0  0  0  0
   18.7508  -25.9446   -9.5607 H   0  0  0  0  0  0  0  0  0  0  0  0
   16.1340  -25.6589   -7.8460 H   0  0  0  0  0  0  0  0  0  0  0  0
   15.2899  -25.2116   -7.6316 H   0  0  0  0  0  0  0  0  0  0  0  0
   14.0018  -23.8197   -7.9808 H   0  0  0  0  0  0  0  0  0  0  0  0
   14.4995  -21.5467  -10.5264 H   0  0  0  0  0  0  0  0  0  0  0  0
   15.9276  -21.7483  -11.4186 H   0  0  0  0  0  0  0  0  0  0  0  0
   16.8428  -22.4325  -11.4611 H   0  0  0  0  0  0  0  0  0  0  0  0
   18.1497  -25.2351   -9.7808 H   0  0  0  0  0  0  0  0  0  0  0  0
   19.9178  -24.5184  -11.8070 H   0  0  0  0  0  0  0  0  0  0  0  0
   19.2697  -25.6079  -10.2758 H   0  0  0  0  0  0  0  0  0  0  0  0
   19.4756  -23.3285  -12.6060 H   0  0  0  0  0  0  0  0  0  0  0  0
   17.1141  -21.9016  -12.1723 H   0  0  0  0  0  0  0  0  0  0  0  0
   19.6711  -20.7427  -15.2243 H   0  0  0  0  0  0  0  0  0  0  0  0
   18.2523  -19.1817  -15.6341 H   0  0  0  0  0  0  0  0  0  0  0  0
   16.4215  -18.9242  -14.4865 H   0  0  0  0  0  0  0  0  0  0  0  0
   15.7778  -19.2707  -13.6655 H   0  0  0  0  0  0  0  0  0  0  0  0
   15.9898  -21.4988  -11.7016 H   0  0  0  0  0  0  0  0  0  0  0  0
   14.6434  -18.8825  -13.1190 H   0  0  0  0  0  0  0  0  0  0  0  0
   14.6639  -21.1095  -11.1173 H   0  0  0  0  0  0  0  0  0  0  0  0
   13.3172  -18.4935  -12.5351 H   0  0  0  0  0  0  0  0  0  0  0  0
   13.5311  -20.7379  -10.5559 H   0  0  0  0  0  0  0  0  0  0  0  0
   12.2238  -20.3255   -9.9469 H   0  0  0  0  0  0  0  0  0  0  0  0
   12.1657  -18.1452  -11.9987 H   0  0  0  0  0  0  0  0  0  0  0  0
   10.4721  -17.6204  -11.2029 H   0  0  0  0  0  0  0  0  0  0  0  0
    8.8633  -17.6192   -9.9798 H   0  0  0  0  0  0  0  0  0  0  0  0
    8.6764  -19.2035   -8.3256 H   0  0  0  0  0  0  0  0  0  0  0  0
   10.1207  -20.5979   -8.0940 H   0  0  0  0  0  0  0  0  0  0  0  0
   11.8983  -20.7051   -9.3445 H   0  0  0  0  0  0  0  0  0  0  0  0
  1  2  2  0
  2  3  1  0
  3  4  1  0
  4  5  1  0
  5  6  1  0
  6  7  1  0
  7  8  1  0
  8  9  1  0
  9 10  1  0
 10 11  1  0
 11 12  1  0
 12 13  1  0
 13 14  1  0
 14 15  1  0
 15 16  1  0
 16 17  1  0
 17 18  1  0
 18 19  1  0
 19 20  1  0
 20 21  1  0
 21 22  1  0
  8  3  1  0
 15 11  1  0
 22 20  1  0
 10  7  1  0
 15 13  1  0
  2 23  1  0
  3 24  1  0
  4 25  1  0
  4 26  1  0
  6 27  1  0
  6 28  1  0
  7 29  1  0
  8 30  1  0
  9 31  1  0
  9 32  1  0
 10 33  1  0
 11 34  1  0
 13 35  1  0
 14 36  1  0
 14 37  1  0
 16 38  1  0
 16 39  1  0
 17 40  1  0
 17 41  1  0
 18 42  1  0
 18 43  1  0
 19 44  1  0
 19 45  1  0
 20 46  1  0
 21 47  1  0
 21 48  1  0
 22 49  1  0
 22 50  1  0
M  END
