
     RDKit          2D

 40 46  0  0  0  0  0  0  0  0999 V2000
   13.6967  -21.9601   -8.2078 C   0  0  0  0  0  0  0  0  0  0  0  0
   14.4828  -21.5246   -9.4088 C   0  0  0  0  0  0  0  0  0  0  0  0
   15.9170  -21.9381   -9.5567 C   0  0  0  0  0  0  0  0  0  0  0  0
   17.3513  -22.3517   -9.7045 C   0  0  0  0  0  0  0  0  0  0  0  0
   18.1374  -21.9163  -10.9055 O   0  0  0  0  0  0  0  0  0  0  0  0
   17.9994  -23.2008   -8.6514 C   0  0  0  0  0  0  0  0  0  0  0  0
   16.9289  -23.4327   -7.6266 C   0  0  0  0  0  0  0  0  0  0  0  0
   17.4754  -22.5719   -9.4055 N   0  0  0  0  0  0  0  0  0  0  0  0
   18.7573  -22.5593  -10.1843 C   0  0  0  0  0  0  0  0  0  0  0  0
   20.0392  -22.5466  -10.9631 C   0  0  0  0  0  0  0  0  0  0  0  0
   21.3211  -22.5341  -11.7418 N   0  0  0  0  0  0  0  0  0  0  0  0
   19.4054  -23.4083   -9.1311 C   0  0  0  0  0  0  0  0  0  0  0  0
   18.9573  -24.0176   -7.8358 C   0  0  0  0  0  0  0  0  0  0  0  0
   17.8868  -24.2496   -6.8110 C   0  0  0  0  0  0  0  0  0  0  0  0
   19.2515  -24.8409   -6.6170 C   0  0  0  0  0  0  0  0  0  0  0  0
   19.0472  -25.5437   -5.3076 C   0  0  0  0  0  0  0  0  0  0  0  0
   20.6873  -25.1883   -6.8777 F   0  0  0  0  0  0  0  0  0  0  0  0
   13.8346  -20.6756  -10.4619 C   0  0  0  0  0  0  0  0  0  0  0  0
   12.4597  -20.5406   -9.8779 C   0  0  0  0  0  0  0  0  0  0  0  0
   11.4121  -19.7471  -10.6011 C   0  0  0  0  0  0  0  0  0  0  0  0
   12.7871  -19.8821  -11.1852 C   0  0  0  0  0  0  0  0  0  0  0  0
   13.1146  -19.2235  -12.4925 Cl  0  0  0  0  0  0  0  0  0  0  0  0
   12.9105  -22.3955   -7.0068 H   0  0  0  0  0  0  0  0  0  0  0  0
   12.6735  -20.8641   -8.2518 H   0  0  0  0  0  0  0  0  0  0  0  0
   14.6310  -23.1177   -8.0159 H   0  0  0  0  0  0  0  0  0  0  0  0
   17.4893  -21.0673  -11.9586 H   0  0  0  0  0  0  0  0  0  0  0  0
   16.0427  -22.1455   -9.2802 H   0  0  0  0  0  0  0  0  0  0  0  0
   18.4386  -21.7324  -11.3945 H   0  0  0  0  0  0  0  0  0  0  0  0
   19.5484  -21.3690  -11.7519 H   0  0  0  0  0  0  0  0  0  0  0  0
   20.5300  -23.7243  -10.1741 H   0  0  0  0  0  0  0  0  0  0  0  0
   22.3865  -23.5485  -11.4492 H   0  0  0  0  0  0  0  0  0  0  0  0
   21.5377  -21.5069  -12.8132 H   0  0  0  0  0  0  0  0  0  0  0  0
   16.9600  -24.5929   -5.6826 H   0  0  0  0  0  0  0  0  0  0  0  0
   18.8429  -26.2464   -3.9983 H   0  0  0  0  0  0  0  0  0  0  0  0
   20.4691  -26.0201   -5.3413 H   0  0  0  0  0  0  0  0  0  0  0  0
   17.6109  -25.1565   -5.1146 H   0  0  0  0  0  0  0  0  0  0  0  0
   14.9845  -20.5157  -11.4117 H   0  0  0  0  0  0  0  0  0  0  0  0
   11.9640  -21.1288   -8.5901 H   0  0  0  0  0  0  0  0  0  0  0  0
   10.2622  -19.9069   -9.6513 H   0  0  0  0  0  0  0  0  0  0  0  0
   10.7640  -18.8981  -11.6543 H   0  0  0  0  0  0  0  0  0  0  0  0
  1  2  1  0
  2  3  2  0
  3  4  2  0
  4  5  1  0
  4  6  1  0
  6  7  1  0
  7  8  1  0
  8  9  1  0
  9 10  1  0
 10 11  1  0
  9 12  1  0
 12 13  1  0
 13 14  1  0
 14 15  1  0
 15 16  1  0
 15 17  1  0
  2 18  1  0
 18 19  1  0
 19 20  1  0
 20 21  1  0
 21 22  1  0
 12  6  1  0
 15 13  1  0
 21 18  1  0
 13  6  1  0
 21 19  1  0
 12  7  1  0
 14  7  1  0
  1 23  1  0
  1 24  1  0
  1 25  1  0
  5 26  1  0
  8 27  1  0
  9 28  1  0
 10 29  1  0
 10 30  1  0
 11 31  1  0
 11 32  1  0
 14 33  1  0
 16 34  1  0
 16 35  1  0
 16 36  1  0
 18 37  1  0
 19 38  1  0
 20 39  1  0
 20 40  1  0
M  END
