
     RDKit          2D

 69 71  0  0  0  0  0  0  0  0999 V2000
   19.9352  -18.1067  -23.7690 C   0  0  0  0  0  0  0  0  0  0  0  0
   19.3596  -18.3467  -22.4047 C   0  0  0  0  0  0  0  0  0  0  0  0
   18.7841  -18.5866  -21.0405 C   0  0  0  0  0  0  0  0  0  0  0  0
   18.2085  -18.8266  -19.6763 C   0  0  0  0  0  0  0  0  0  0  0  0
   17.3143  -17.6340  -19.8437 N   0  0  0  0  0  0  0  0  0  0  0  0
   17.6329  -19.0665  -18.3120 C   0  0  0  0  0  0  0  0  0  0  0  0
   17.2080  -17.6298  -18.2385 O   0  0  0  0  0  0  0  0  0  0  0  0
   17.0574  -19.3064  -16.9478 C   0  0  0  0  0  0  0  0  0  0  0  0
   16.4818  -19.5463  -15.5835 C   0  0  0  0  0  0  0  0  0  0  0  0
   16.8035  -21.0019  -15.4173 C   0  0  0  0  0  0  0  0  0  0  0  0
   16.0874  -20.2627  -14.3261 C   0  0  0  0  0  0  0  0  0  0  0  0
   16.4091  -21.7184  -14.1598 C   0  0  0  0  0  0  0  0  0  0  0  0
   17.0547  -22.8811  -14.8534 C   0  0  0  0  0  0  0  0  0  0  0  0
   17.7703  -23.4503  -16.0426 C   0  0  0  0  0  0  0  0  0  0  0  0
   17.2900  -24.3226  -14.5116 C   0  0  0  0  0  0  0  0  0  0  0  0
   16.9772  -25.1983  -13.3346 C   0  0  0  0  0  0  0  0  0  0  0  0
   17.0291  -26.5381  -12.6621 C   0  0  0  0  0  0  0  0  0  0  0  0
   17.0810  -27.8779  -11.9897 C   0  0  0  0  0  0  0  0  0  0  0  0
   16.2995  -24.9953  -12.0120 O   0  0  0  0  0  0  0  0  0  0  0  0
   15.6539  -23.8325  -11.3184 C   0  0  0  0  0  0  0  0  0  0  0  0
   14.9384  -23.2633  -10.1292 C   0  0  0  0  0  0  0  0  0  0  0  0
   14.2228  -22.6941   -8.9400 C   0  0  0  0  0  0  0  0  0  0  0  0
   13.5073  -22.1250   -7.7509 F   0  0  0  0  0  0  0  0  0  0  0  0
   15.4186  -22.3910  -11.6602 C   0  0  0  0  0  0  0  0  0  0  0  0
   14.8759  -21.0412  -11.2948 C   0  0  0  0  0  0  0  0  0  0  0  0
   15.7314  -21.5153  -12.8372 C   0  0  0  0  0  0  0  0  0  0  0  0
   15.6795  -20.1755  -13.5097 C   0  0  0  0  0  0  0  0  0  0  0  0
   20.5107  -17.8667  -25.1332 H   0  0  0  0  0  0  0  0  0  0  0  0
   19.2571  -16.7696  -23.8199 H   0  0  0  0  0  0  0  0  0  0  0  0
   20.6132  -19.4438  -23.7181 H   0  0  0  0  0  0  0  0  0  0  0  0
   18.9226  -16.9134  -22.3370 H   0  0  0  0  0  0  0  0  0  0  0  0
   19.7967  -19.7799  -22.4725 H   0  0  0  0  0  0  0  0  0  0  0  0
   19.2432  -20.0135  -21.0977 H   0  0  0  0  0  0  0  0  0  0  0  0
   18.3985  -17.1411  -21.1499 H   0  0  0  0  0  0  0  0  0  0  0  0
   19.1663  -19.9811  -19.6763 H   0  0  0  0  0  0  0  0  0  0  0  0
   15.9312  -17.6172  -20.4242 H   0  0  0  0  0  0  0  0  0  0  0  0
   17.6208  -16.2154  -19.4648 H   0  0  0  0  0  0  0  0  0  0  0  0
   17.9845  -20.5217  -18.2186 H   0  0  0  0  0  0  0  0  0  0  0  0
   17.4121  -16.5735  -19.2839 H   0  0  0  0  0  0  0  0  0  0  0  0
   17.4069  -20.4687  -17.0047 H   0  0  0  0  0  0  0  0  0  0  0  0
   16.6259  -17.8715  -16.8776 H   0  0  0  0  0  0  0  0  0  0  0  0
   15.9601  -18.1739  -15.2759 H   0  0  0  0  0  0  0  0  0  0  0  0
   17.2661  -21.2734  -16.2424 H   0  0  0  0  0  0  0  0  0  0  0  0
   15.4026  -19.2421  -13.4662 H   0  0  0  0  0  0  0  0  0  0  0  0
   17.2329  -22.0477  -15.7193 H   0  0  0  0  0  0  0  0  0  0  0  0
   18.4858  -24.0195  -17.2317 H   0  0  0  0  0  0  0  0  0  0  0  0
   18.2800  -22.1496  -16.5890 H   0  0  0  0  0  0  0  0  0  0  0  0
   17.5921  -24.2153  -15.9062 H   0  0  0  0  0  0  0  0  0  0  0  0
   17.8263  -25.4686  -14.9824 H   0  0  0  0  0  0  0  0  0  0  0  0
   17.7026  -24.5308  -15.2672 H   0  0  0  0  0  0  0  0  0  0  0  0
   17.6601  -26.2279  -14.1852 H   0  0  0  0  0  0  0  0  0  0  0  0
   17.7294  -27.1114  -13.8584 H   0  0  0  0  0  0  0  0  0  0  0  0
   16.3288  -25.9648  -11.4659 H   0  0  0  0  0  0  0  0  0  0  0  0
   17.1329  -29.2177  -11.3172 H   0  0  0  0  0  0  0  0  0  0  0  0
   16.2945  -27.3293  -10.8361 H   0  0  0  0  0  0  0  0  0  0  0  0
   17.8675  -28.4265  -13.1432 H   0  0  0  0  0  0  0  0  0  0  0  0
   15.5188  -24.9793  -10.3610 H   0  0  0  0  0  0  0  0  0  0  0  0
   14.4924  -24.6411   -9.7382 H   0  0  0  0  0  0  0  0  0  0  0  0
   15.2938  -21.8265  -10.3724 H   0  0  0  0  0  0  0  0  0  0  0  0
   14.2722  -24.0346   -8.2687 H   0  0  0  0  0  0  0  0  0  0  0  0
   14.0866  -21.2943   -9.4614 H   0  0  0  0  0  0  0  0  0  0  0  0
   14.7200  -22.0383  -10.3805 H   0  0  0  0  0  0  0  0  0  0  0  0
   14.3333  -19.6913  -10.9295 H   0  0  0  0  0  0  0  0  0  0  0  0
   14.3415  -21.4182   -9.9449 H   0  0  0  0  0  0  0  0  0  0  0  0
   15.2780  -20.3351  -12.5557 H   0  0  0  0  0  0  0  0  0  0  0  0
   15.1221  -20.2672  -12.2705 H   0  0  0  0  0  0  0  0  0  0  0  0
   15.6276  -18.8357  -14.1822 H   0  0  0  0  0  0  0  0  0  0  0  0
   15.0008  -19.5965  -12.3038 H   0  0  0  0  0  0  0  0  0  0  0  0
   16.3255  -20.4131  -14.8424 H   0  0  0  0  0  0  0  0  0  0  0  0
  1  2  1  0
  2  3  1  0
  3  4  1  0
  4  5  1  0
  4  6  1  0
  6  7  1  0
  6  8  1  0
  8  9  1  0
  9 10  1  0
 10 11  1  0
 11 12  1  0
 12 13  1  0
 13 14  1  0
 13 15  1  0
 15 16  1  0
 16 17  1  0
 17 18  1  0
 16 19  1  0
 19 20  1  0
 20 21  1  0
 21 22  1  0
 22 23  1  0
 20 24  1  0
 24 25  1  0
 24 26  1  0
 26 27  1  0
 11  9  1  0
 26 12  1  0
 12 10  1  0
  1 28  1  0
  1 29  1  0
  1 30  1  0
  2 31  1  0
  2 32  1  0
  3 33  1  0
  3 34  1  0
  4 35  1  0
  5 36  1  0
  5 37  1  0
  6 38  1  0
  7 39  1  0
  8 40  1  0
  8 41  1  0
  9 42  1  0
 10 43  1  0
 11 44  1  0
 13 45  1  0
 14 46  1  0
 14 47  1  0
 14 48  1  0
 15 49  1  0
 15 50  1  0
 16 51  1  0
 17 52  1  0
 17 53  1  0
 18 54  1  0
 18 55  1  0
 18 56  1  0
 20 57  1  0
 21 58  1  0
 21 59  1  0
 22 60  1  0
 22 61  1  0
 24 62  1  0
 25 63  1  0
 25 64  1  0
 25 65  1  0
 26 66  1  0
 27 67  1  0
 27 68  1  0
 27 69  1  0
M  END
