
     RDKit          3D

 10 11  0  0  0  0  0  0  0  0999 V2000
   25.4945  -27.9394  -16.6302 O   0  0  0  0  0  0  0  0  0  0  0  0
   26.6797  -28.2083  -15.9149 C   0  0  0  0  0  0  0  0  0  0  0  0
   27.8703  -28.1560  -16.9012 C   0  0  0  0  0  0  0  0  0  0  0  0
   26.6735  -29.6690  -15.4028 C   0  0  0  0  0  0  0  0  0  0  0  0
   27.8038  -30.4203  -15.9656 N   0  0  0  0  0  0  0  0  0  0  0  0
   26.7841  -27.2166  -14.7293 C   0  0  0  0  0  0  0  0  0  0  0  0
   28.6048  -29.4845  -16.7808 C   0  0  0  0  0  0  0  0  0  0  0  0
   29.0928  -29.8917  -15.4623 C   0  0  0  0  0  0  0  0  0  0  0  0
   30.1309  -30.9088  -15.5175 N   0  0  0  0  0  0  0  0  0  0  0  0
   28.8417  -26.9722  -16.7687 C   0  0  0  0  0  0  0  0  0  0  0  0
  2  1  1  0
  3  2  1  0
  4  2  1  0
  5  4  1  0
  6  2  1  0
  7  3  1  0
  7  5  1  0
  8  5  1  0
  8  7  1  0
  9  8  1  0
 10  3  1  0
M  END
$$$$
