
     RDKit          2D

 25 26  0  0  0  0  0  0  0  0999 V2000
   14.9091  -15.7646   -3.9490 C   0  0  0  0  0  0  0  0  0  0  0  0
   15.9286  -16.7856   -4.3590 C   0  0  0  0  0  0  0  0  0  0  0  0
   16.9481  -17.8067   -4.7690 B   0  0  0  0  0  0  0  0  0  0  0  0
   17.4894  -18.7739   -3.7583 C   0  0  0  0  0  0  0  0  0  0  0  0
   17.4263  -17.8606   -6.1897 C   0  0  0  0  0  0  0  0  0  0  0  0
   17.9045  -17.9145   -7.6104 C   0  0  0  0  0  0  0  0  0  0  0  0
   18.3826  -17.9684   -9.0312 C   0  0  0  0  0  0  0  0  0  0  0  0
   17.6432  -18.7959  -10.0405 C   0  0  0  0  0  0  0  0  0  0  0  0
   18.8608  -18.0223  -10.4519 C   0  0  0  0  0  0  0  0  0  0  0  0
   19.6001  -17.1948   -9.4426 O   0  0  0  0  0  0  0  0  0  0  0  0
   13.8897  -14.7436   -3.5390 H   0  0  0  0  0  0  0  0  0  0  0  0
   14.0451  -16.8536   -3.3856 H   0  0  0  0  0  0  0  0  0  0  0  0
   15.7732  -14.6756   -4.5124 H   0  0  0  0  0  0  0  0  0  0  0  0
   15.9639  -17.3140   -2.9556 H   0  0  0  0  0  0  0  0  0  0  0  0
   15.8933  -16.2573   -5.7624 H   0  0  0  0  0  0  0  0  0  0  0  0
   18.0308  -19.7411   -2.7475 H   0  0  0  0  0  0  0  0  0  0  0  0
   16.6208  -18.1567   -2.7025 H   0  0  0  0  0  0  0  0  0  0  0  0
   18.3580  -19.3910   -4.8140 H   0  0  0  0  0  0  0  0  0  0  0  0
   16.2615  -17.0159   -6.6138 H   0  0  0  0  0  0  0  0  0  0  0  0
   18.5911  -18.7053   -5.7657 H   0  0  0  0  0  0  0  0  0  0  0  0
   19.0538  -18.7822   -7.1907 H   0  0  0  0  0  0  0  0  0  0  0  0
   16.7551  -17.0468   -8.0302 H   0  0  0  0  0  0  0  0  0  0  0  0
   16.5508  -19.3487   -9.1740 H   0  0  0  0  0  0  0  0  0  0  0  0
   17.2834  -19.4313  -11.3507 H   0  0  0  0  0  0  0  0  0  0  0  0
   19.3389  -18.0762  -11.8726 H   0  0  0  0  0  0  0  0  0  0  0  0
  1  2  1  0
  2  3  1  0
  3  4  1  0
  3  5  1  0
  5  6  1  0
  6  7  1  0
  7  8  1  0
  8  9  1  0
  9 10  1  0
  9  7  1  0
 10  7  1  0
  1 11  1  0
  1 12  1  0
  1 13  1  0
  2 14  1  0
  2 15  1  0
  4 16  1  0
  4 17  1  0
  4 18  1  0
  5 19  1  0
  5 20  1  0
  6 21  1  0
  6 22  1  0
  8 23  1  0
  8 24  1  0
  9 25  1  0
M  END
