
     RDKit          2D

 54 56  0  0  0  0  0  0  0  0999 V2000
   -3.8247   23.8615   11.9577 C   0  0  0  0  0  0  0  0  0  0  0  0
   -4.6877   24.7618   11.1244 C   0  0  0  0  0  0  0  0  0  0  0  0
   -5.5508   25.6622   10.2909 C   0  0  0  0  0  0  0  0  0  0  0  0
   -6.4139   26.5624    9.4576 C   0  0  0  0  0  0  0  0  0  0  0  0
   -4.8067   25.2361    9.0602 C   0  0  0  0  0  0  0  0  0  0  0  0
   -4.0626   24.8102    7.8294 O   0  0  0  0  0  0  0  0  0  0  0  0
   -4.4374   25.3776    6.4924 C   0  0  0  0  0  0  0  0  0  0  0  0
   -5.4316   26.0861    7.3640 C   0  0  0  0  0  0  0  0  0  0  0  0
   -3.3130   24.4720    6.0851 C   0  0  0  0  0  0  0  0  0  0  0  0
   -3.0302   24.4931    4.6023 C   0  0  0  0  0  0  0  0  0  0  0  0
   -4.1293   25.3502    5.1568 C   0  0  0  0  0  0  0  0  0  0  0  0
   -4.7532   26.0989    4.0165 N   0  0  0  0  0  0  0  0  0  0  0  0
   -5.1575   26.1910    5.4581 C   0  0  0  0  0  0  0  0  0  0  0  0
   -4.0397   25.7047    2.7574 C   0  0  0  0  0  0  0  0  0  0  0  0
   -3.1571   25.1287    1.6900 C   0  0  0  0  0  0  0  0  0  0  0  0
   -3.7130   25.8298    0.4860 C   0  0  0  0  0  0  0  0  0  0  0  0
   -4.2689   26.5308   -0.7179 C   0  0  0  0  0  0  0  0  0  0  0  0
   -4.8248   27.2319   -1.9219 S   0  0  0  0  0  0  0  0  0  0  0  0
   -2.0815   24.3092    1.0407 O   0  0  0  0  0  0  0  0  0  0  0  0
   -1.2191   23.4081    1.8739 C   0  0  0  0  0  0  0  0  0  0  0  0
   -0.1435   22.5887    1.2246 O   0  0  0  0  0  0  0  0  0  0  0  0
   -2.9748   24.7122    3.1194 C   0  0  0  0  0  0  0  0  0  0  0  0
   -1.8375   23.7681    2.8638 C   0  0  0  0  0  0  0  0  0  0  0  0
   -2.9615   22.9612   12.7911 H   0  0  0  0  0  0  0  0  0  0  0  0
   -4.5685   24.2877   13.1886 H   0  0  0  0  0  0  0  0  0  0  0  0
   -3.0808   23.4353   10.7269 H   0  0  0  0  0  0  0  0  0  0  0  0
   -4.1895   24.4474   10.4630 H   0  0  0  0  0  0  0  0  0  0  0  0
   -5.4319   25.1878   12.3551 H   0  0  0  0  0  0  0  0  0  0  0  0
   -6.2949   26.0881   11.5218 H   0  0  0  0  0  0  0  0  0  0  0  0
   -7.2769   27.4627    8.6242 H   0  0  0  0  0  0  0  0  0  0  0  0
   -7.1377   27.0115   10.6923 H   0  0  0  0  0  0  0  0  0  0  0  0
   -6.0880   26.3839    8.7524 H   0  0  0  0  0  0  0  0  0  0  0  0
   -5.2549   25.7378    8.4840 H   0  0  0  0  0  0  0  0  0  0  0  0
   -4.2514   24.6732    9.4591 H   0  0  0  0  0  0  0  0  0  0  0  0
   -6.2369   26.6599    8.0699 H   0  0  0  0  0  0  0  0  0  0  0  0
   -5.1236   25.5880    8.7449 H   0  0  0  0  0  0  0  0  0  0  0  0
   -6.1140   26.8573    6.2733 H   0  0  0  0  0  0  0  0  0  0  0  0
   -3.3287   24.2191    7.5635 H   0  0  0  0  0  0  0  0  0  0  0  0
   -2.2285   23.4761    6.3712 H   0  0  0  0  0  0  0  0  0  0  0  0
   -2.0620   23.5365    5.2327 H   0  0  0  0  0  0  0  0  0  0  0  0
   -3.9864   24.9656    6.5995 H   0  0  0  0  0  0  0  0  0  0  0  0
   -4.9862   25.8973    6.2596 H   0  0  0  0  0  0  0  0  0  0  0  0
   -6.1360   27.1524    4.8512 H   0  0  0  0  0  0  0  0  0  0  0  0
   -6.0011   26.7236    6.5781 H   0  0  0  0  0  0  0  0  0  0  0  0
   -4.9399   26.6269    1.9897 H   0  0  0  0  0  0  0  0  0  0  0  0
   -2.7197   25.1203   -0.3858 H   0  0  0  0  0  0  0  0  0  0  0  0
   -4.7667   26.6193    1.2046 H   0  0  0  0  0  0  0  0  0  0  0  0
   -3.2727   25.8248   -1.5891 H   0  0  0  0  0  0  0  0  0  0  0  0
   -5.2652   27.2369    0.1533 H   0  0  0  0  0  0  0  0  0  0  0  0
   -5.9601   28.2001   -1.7682 H   0  0  0  0  0  0  0  0  0  0  0  0
   -1.1552   23.0885    3.3381 H   0  0  0  0  0  0  0  0  0  0  0  0
   -0.7003   22.8240    2.6082 H   0  0  0  0  0  0  0  0  0  0  0  0
   -1.5240   23.9628    1.4100 H   0  0  0  0  0  0  0  0  0  0  0  0
   -1.8771   23.3320    4.2985 H   0  0  0  0  0  0  0  0  0  0  0  0
  1  2  1  0
  2  3  1  0
  3  4  1  0
  3  5  1  0
  5  6  1  0
  6  7  1  0
  7  8  1  0
  7  9  1  0
  9 10  1  0
 10 11  1  0
 11 12  1  0
 12 13  1  0
 12 14  1  0
 14 15  1  0
 15 16  1  0
 16 17  1  0
 17 18  1  0
 15 19  1  0
 19 20  1  0
 20 21  2  0
 15 22  1  0
 22 23  1  0
 13  7  1  0
 22 14  1  0
 22 10  1  0
  1 24  1  0
  1 25  1  0
  1 26  1  0
  2 27  1  0
  2 28  1  0
  3 29  1  0
  4 30  1  0
  4 31  1  0
  4 32  1  0
  5 33  1  0
  5 34  1  0
  8 35  1  0
  8 36  1  0
  8 37  1  0
  9 38  1  0
  9 39  1  0
 10 40  1  0
 11 41  1  0
 11 42  1  0
 13 43  1  0
 13 44  1  0
 14 45  1  0
 16 46  1  0
 16 47  1  0
 17 48  1  0
 17 49  1  0
 18 50  1  0
 20 51  1  0
 23 52  1  0
 23 53  1  0
 23 54  1  0
M  END
