
     RDKit          2D

 37 38  0  0  0  0  0  0  0  0999 V2000
   -0.9378   20.6365    3.3953 C   0  0  0  0  0  0  0  0  0  0  0  0
   -1.5715   21.9760    3.1628 C   0  0  0  0  0  0  0  0  0  0  0  0
   -2.7789   22.8016    2.8302 C   0  0  0  0  0  0  0  0  0  0  0  0
   -3.0503   24.2685    2.6736 C   0  0  0  0  0  0  0  0  0  0  0  0
   -4.2576   25.0943    2.3410 C   0  0  0  0  0  0  0  0  0  0  0  0
   -3.4341   26.3431    2.4522 C   0  0  0  0  0  0  0  0  0  0  0  0
   -2.2268   25.5174    2.7849 C   0  0  0  0  0  0  0  0  0  0  0  0
   -0.7908   25.8166    3.0988 N   0  0  0  0  0  0  0  0  0  0  0  0
    0.4164   24.9908    3.4314 N   0  0  0  0  0  0  0  0  0  0  0  0
    0.6878   23.5239    3.5880 C   0  0  0  0  0  0  0  0  0  0  0  0
   -0.1356   22.2752    3.4767 C   0  0  0  0  0  0  0  0  0  0  0  0
      -nan      -nan      -nan C   0  0  0  0  0  0  0  0  0  0  0  0
      -nan      -nan      -nan C   0  0  0  0  0  0  0  0  0  0  0  0
      -nan      -nan      -nan N   0  0  0  0  0  0  0  0  0  0  0  0
   -0.3040   19.2970    3.6277 H   0  0  0  0  0  0  0  0  0  0  0  0
   -2.2756   20.0675    3.7646 H   0  0  0  0  0  0  0  0  0  0  0  0
   -0.1910   20.8498    3.2156 H   0  0  0  0  0  0  0  0  0  0  0  0
   -2.5550   20.8541    3.0064 H   0  0  0  0  0  0  0  0  0  0  0  0
   -3.4264   21.4501    2.7663 H   0  0  0  0  0  0  0  0  0  0  0  0
   -4.0927   22.7187    2.5308 H   0  0  0  0  0  0  0  0  0  0  0  0
   -4.1124   23.7176    2.4625 H   0  0  0  0  0  0  0  0  0  0  0  0
   -5.4649   25.9200    2.0083 H   0  0  0  0  0  0  0  0  0  0  0  0
   -4.9987   23.9703    2.2409 H   0  0  0  0  0  0  0  0  0  0  0  0
   -2.6106   27.5919    2.5635 H   0  0  0  0  0  0  0  0  0  0  0  0
   -4.6414   27.1688    2.1196 H   0  0  0  0  0  0  0  0  0  0  0  0
   -1.9280   26.9871    2.7604 H   0  0  0  0  0  0  0  0  0  0  0  0
   -0.4921   27.2863    3.0743 H   0  0  0  0  0  0  0  0  0  0  0  0
    1.6392   25.8287    3.6615 H   0  0  0  0  0  0  0  0  0  0  0  0
    2.0046   24.1926    3.8506 H   0  0  0  0  0  0  0  0  0  0  0  0
    1.9746   22.8334    3.9304 H   0  0  0  0  0  0  0  0  0  0  0  0
    0.0877   21.5165    3.5769 H   0  0  0  0  0  0  0  0  0  0  0  0
      -nan      -nan      -nan H   0  0  0  0  0  0  0  0  0  0  0  0
      -nan      -nan      -nan H   0  0  0  0  0  0  0  0  0  0  0  0
      -nan      -nan      -nan H   0  0  0  0  0  0  0  0  0  0  0  0
      -nan      -nan      -nan H   0  0  0  0  0  0  0  0  0  0  0  0
      -nan      -nan      -nan H   0  0  0  0  0  0  0  0  0  0  0  0
      -nan      -nan      -nan H   0  0  0  0  0  0  0  0  0  0  0  0
  1  2  1  0
  2  3  1  0
  3  4  1  0
  4  5  1  0
  5  6  1  0
  6  7  1  0
  7  8  1  0
  8  9  1  0
  9 10  1  0
 10 11  1  0
 11 12  1  0
 12 13  1  0
 13 14  1  0
 11  2  1  0
  7  4  1  0
  1 15  1  0
  1 16  1  0
  1 17  1  0
  2 18  1  0
  3 19  1  0
  3 20  1  0
  4 21  1  0
  5 22  1  0
  5 23  1  0
  6 24  1  0
  6 25  1  0
  7 26  1  0
  8 27  1  0
  9 28  1  0
 10 29  1  0
 10 30  1  0
 11 31  1  0
 12 32  1  0
 12 33  1  0
 13 34  1  0
 13 35  1  0
 14 36  1  0
 14 37  1  0
M  END
