
     RDKit          2D

107113  0  0  0  0  0  0  0  0999 V2000
   -6.6009   25.3570   10.1562 C   0  0  0  0  0  0  0  0  0  0  0  0
   -5.4115   26.1548   10.6021 C   0  0  0  0  0  0  0  0  0  0  0  0
   -4.0627   25.8895   10.0016 C   0  0  0  0  0  0  0  0  0  0  0  0
   -2.7140   25.6243    9.4011 C   0  0  0  0  0  0  0  0  0  0  0  0
   -2.4337   24.6162   10.4759 O   0  0  0  0  0  0  0  0  0  0  0  0
   -1.3652   25.3592    8.8006 C   0  0  0  0  0  0  0  0  0  0  0  0
   -0.0165   25.0939    8.2001 O   0  0  0  0  0  0  0  0  0  0  0  0
    0.4173   25.8384    6.9723 C   0  0  0  0  0  0  0  0  0  0  0  0
   -0.8894   26.5749    6.9572 Cl  0  0  0  0  0  0  0  0  0  0  0  0
    0.8511   26.5828    5.7445 C   0  0  0  0  0  0  0  0  0  0  0  0
    1.2850   27.3273    4.5166 C   0  0  0  0  0  0  0  0  0  0  0  0
   -0.0222   28.0628    4.5007 C   0  0  0  0  0  0  0  0  0  0  0  0
   -1.3295   28.7982    4.4847 C   0  0  0  0  0  0  0  0  0  0  0  0
    2.5922   26.5919    4.5326 N   0  0  0  0  0  0  0  0  0  0  0  0
    3.8234   26.5982    3.6756 C   0  0  0  0  0  0  0  0  0  0  0  0
    5.0544   26.6045    2.8187 O   0  0  0  0  0  0  0  0  0  0  0  0
    6.2012   25.6948    3.1466 C   0  0  0  0  0  0  0  0  0  0  0  0
    7.4323   25.7011    2.2898 C   0  0  0  0  0  0  0  0  0  0  0  0
    2.1584   25.8474    5.7604 C   0  0  0  0  0  0  0  0  0  0  0  0
    3.4656   25.1119    5.7763 C   0  0  0  0  0  0  0  0  0  0  0  0
    4.7728   24.3765    5.7923 C   0  0  0  0  0  0  0  0  0  0  0  0
    6.0801   23.6410    5.8083 C   0  0  0  0  0  0  0  0  0  0  0  0
    7.1508   22.6787    6.2292 C   0  0  0  0  0  0  0  0  0  0  0  0
    8.2035   22.9977    5.2094 C   0  0  0  0  0  0  0  0  0  0  0  0
    5.8534   22.7322    6.9800 N   0  0  0  0  0  0  0  0  0  0  0  0
    4.9733   22.2385    8.0898 C   0  0  0  0  0  0  0  0  0  0  0  0
    4.0932   21.7448    9.1996 P   0  0  0  0  0  0  0  0  0  0  0  0
    3.1565   20.5979    8.9602 C   0  0  0  0  0  0  0  0  0  0  0  0
    4.1498   22.3979   10.5488 C   0  0  0  0  0  0  0  0  0  0  0  0
    3.8442   22.6877   11.9884 C   0  0  0  0  0  0  0  0  0  0  0  0
    3.1267   21.5786   11.2780 C   0  0  0  0  0  0  0  0  0  0  0  0
    2.2465   21.0848   12.3877 C   0  0  0  0  0  0  0  0  0  0  0  0
    1.3665   20.5911   13.4975 C   0  0  0  0  0  0  0  0  0  0  0  0
    0.4863   20.0974   14.6074 C   0  0  0  0  0  0  0  0  0  0  0  0
   -0.0869   19.0578   13.6903 C   0  0  0  0  0  0  0  0  0  0  0  0
    0.7932   19.5516   12.5805 C   0  0  0  0  0  0  0  0  0  0  0  0
    0.8869   20.0852   13.5611 C   0  0  0  0  0  0  0  0  0  0  0  0
    1.6734   20.0454   11.4707 C   0  0  0  0  0  0  0  0  0  0  0  0
    1.1001   19.0058   10.5537 C   0  0  0  0  0  0  0  0  0  0  0  0
    1.8998   19.5685    9.4162 C   0  0  0  0  0  0  0  0  0  0  0  0
    2.6993   20.1311    8.2785 C   0  0  0  0  0  0  0  0  0  0  0  0
    1.3265   18.5290    8.4991 C   0  0  0  0  0  0  0  0  0  0  0  0
    0.5269   17.9663    9.6367 C   0  0  0  0  0  0  0  0  0  0  0  0
   -0.2726   17.4037   10.7743 C   0  0  0  0  0  0  0  0  0  0  0  0
   -0.0462   16.9269    8.7197 C   0  0  0  0  0  0  0  0  0  0  0  0
   -7.9496   25.6223   10.7567 H   0  0  0  0  0  0  0  0  0  0  0  0
   -6.4417   24.2941    9.1099 H   0  0  0  0  0  0  0  0  0  0  0  0
   -5.5707   27.2178   11.6484 H   0  0  0  0  0  0  0  0  0  0  0  0
   -4.1196   27.2093    9.2909 H   0  0  0  0  0  0  0  0  0  0  0  0
   -4.1706   24.6120   10.7802 H   0  0  0  0  0  0  0  0  0  0  0  0
   -2.9942   26.6324    8.3263 H   0  0  0  0  0  0  0  0  0  0  0  0
   -3.4418   23.8660   11.2950 H   0  0  0  0  0  0  0  0  0  0  0  0
   -1.6460   26.3664    7.7251 H   0  0  0  0  0  0  0  0  0  0  0  0
   -1.0845   24.3519    9.8761 H   0  0  0  0  0  0  0  0  0  0  0  0
    1.1519   25.3532    7.0695 H   0  0  0  0  0  0  0  0  0  0  0  0
    0.0537   26.9603    5.8235 H   0  0  0  0  0  0  0  0  0  0  0  0
    1.7188   28.0718    3.2887 H   0  0  0  0  0  0  0  0  0  0  0  0
    0.0566   28.1704    3.0066 H   0  0  0  0  0  0  0  0  0  0  0  0
   -0.1625   28.0526    5.3751 H   0  0  0  0  0  0  0  0  0  0  0  0
   -2.6367   29.5337    4.4687 H   0  0  0  0  0  0  0  0  0  0  0  0
   -0.8953   29.5432    3.2573 H   0  0  0  0  0  0  0  0  0  0  0  0
   -1.7636   28.0533    5.7121 H   0  0  0  0  0  0  0  0  0  0  0  0
    3.2089   27.6504    2.8008 H   0  0  0  0  0  0  0  0  0  0  0  0
    4.4751   25.8551    4.1433 H   0  0  0  0  0  0  0  0  0  0  0  0
    6.1167   24.7788    4.3314 H   0  0  0  0  0  0  0  0  0  0  0  0
    8.5790   24.7914    2.6176 H   0  0  0  0  0  0  0  0  0  0  0  0
    7.5167   26.6172    1.1049 H   0  0  0  0  0  0  0  0  0  0  0  0
    1.9982   25.3581    6.4812 H   0  0  0  0  0  0  0  0  0  0  0  0
    3.0043   24.3177    6.9623 H   0  0  0  0  0  0  0  0  0  0  0  0
    3.9156   25.6212    4.9197 H   0  0  0  0  0  0  0  0  0  0  0  0
    4.1595   23.6848    6.9736 H   0  0  0  0  0  0  0  0  0  0  0  0
    5.3862   25.0682    4.6111 H   0  0  0  0  0  0  0  0  0  0  0  0
    6.5556   24.3192    4.7423 H   0  0  0  0  0  0  0  0  0  0  0  0
    7.8562   21.6054    7.0044 H   0  0  0  0  0  0  0  0  0  0  0  0
    9.2561   23.3169    4.1894 H   0  0  0  0  0  0  0  0  0  0  0  0
    9.1055   21.9649    5.8171 H   0  0  0  0  0  0  0  0  0  0  0  0
    7.5131   23.9554    4.5545 H   0  0  0  0  0  0  0  0  0  0  0  0
    5.4372   23.2080    9.1361 H   0  0  0  0  0  0  0  0  0  0  0  0
    4.3978   21.2011    7.1718 H   0  0  0  0  0  0  0  0  0  0  0  0
    2.3627   19.4628    8.3845 H   0  0  0  0  0  0  0  0  0  0  0  0
    3.7427   20.6464    7.5804 H   0  0  0  0  0  0  0  0  0  0  0  0
    2.6811   20.6899   10.3799 H   0  0  0  0  0  0  0  0  0  0  0  0
    5.1926   23.4441   10.2881 H   0  0  0  0  0  0  0  0  0  0  0  0
    4.7809   23.8346   12.2278 H   0  0  0  0  0  0  0  0  0  0  0  0
    3.3204   22.7196   13.3936 H   0  0  0  0  0  0  0  0  0  0  0  0
    2.7147   20.6408   10.1821 H   0  0  0  0  0  0  0  0  0  0  0  0
    2.7082   22.0564   13.4332 H   0  0  0  0  0  0  0  0  0  0  0  0
    2.0426   21.6830   14.2725 H   0  0  0  0  0  0  0  0  0  0  0  0
    0.2693   20.4833   16.0405 H   0  0  0  0  0  0  0  0  0  0  0  0
   -0.6600   18.0184   12.7733 H   0  0  0  0  0  0  0  0  0  0  0  0
   -0.9670   18.5642   14.8002 H   0  0  0  0  0  0  0  0  0  0  0  0
    1.8281   21.5626   14.5429 H   0  0  0  0  0  0  0  0  0  0  0  0
    2.3591   21.3217   12.6426 H   0  0  0  0  0  0  0  0  0  0  0  0
    2.5534   20.5390   10.3609 H   0  0  0  0  0  0  0  0  0  0  0  0
    0.3764   18.5741   11.7946 H   0  0  0  0  0  0  0  0  0  0  0  0
    1.5371   18.6960    8.2511 H   0  0  0  0  0  0  0  0  0  0  0  0
    3.4230   20.5629    7.0377 H   0  0  0  0  0  0  0  0  0  0  0  0
    2.2273   19.1685    7.2296 H   0  0  0  0  0  0  0  0  0  0  0  0
    3.0626   21.0031    9.4438 H   0  0  0  0  0  0  0  0  0  0  0  0
    0.8550   17.5658    7.4503 H   0  0  0  0  0  0  0  0  0  0  0  0
    2.0503   18.9608    7.2583 H   0  0  0  0  0  0  0  0  0  0  0  0
   -1.0723   16.8411   11.9119 H   0  0  0  0  0  0  0  0  0  0  0  0
   -0.4346   16.0204   10.2174 H   0  0  0  0  0  0  0  0  0  0  0  0
   -0.3057   18.6499   11.6086 H   0  0  0  0  0  0  0  0  0  0  0  0
   -0.6195   15.8874    7.8026 H   0  0  0  0  0  0  0  0  0  0  0  0
   -0.9101   16.2419    9.7370 H   0  0  0  0  0  0  0  0  0  0  0  0
    0.6778   17.3583    7.4789 H   0  0  0  0  0  0  0  0  0  0  0  0
  1  2  2  3
  2  3  1  0
  3  4  1  0
  4  5  1  0
  4  6  1  0
  6  7  1  0
  7  8  1  0
  8  9  1  0
  8 10  1  0
 10 11  1  0
 11 12  1  0
 12 13  1  0
 11 14  1  0
 14 15  1  0
 15 16  1  0
 16 17  1  0
 17 18  2  3
 14 19  1  0
 19 20  1  0
 20 21  1  0
 21 22  1  0
 22 23  1  0
 23 24  1  0
 23 25  1  0
 25 26  1  0
 26 27  1  0
 27 28  1  0
 27 29  1  0
 29 30  1  0
 30 31  1  0
 31 32  1  0
 32 33  1  0
 33 34  1  0
 34 35  1  0
 35 36  1  0
 36 37  1  0
 36 38  1  0
 38 39  1  0
 39 40  1  0
 40 41  1  0
 40 42  1  0
 42 43  1  0
 43 44  1  0
 43 45  1  0
 19 10  1  0
 25 22  1  0
 31 29  1  0
 38 32  1  0
 43 39  1  0
 36 33  1  0
 37 34  1  0
  1 46  1  0
  1 47  1  0
  2 48  1  0
  3 49  1  0
  3 50  1  0
  4 51  1  0
  5 52  1  0
  6 53  1  0
  6 54  1  0
  8 55  1  0
 10 56  1  0
 11 57  1  0
 12 58  1  0
 12 59  1  0
 13 60  1  0
 13 61  1  0
 13 62  1  0
 15 63  1  0
 15 64  1  0
 17 65  1  0
 18 66  1  0
 18 67  1  0
 19 68  1  0
 20 69  1  0
 20 70  1  0
 21 71  1  0
 21 72  1  0
 22 73  1  0
 23 74  1  0
 24 75  1  0
 24 76  1  0
 24 77  1  0
 26 78  1  0
 26 79  1  0
 28 80  1  0
 28 81  1  0
 28 82  1  0
 29 83  1  0
 30 84  1  0
 30 85  1  0
 31 86  1  0
 32 87  1  0
 33 88  1  0
 34 89  1  0
 35 90  1  0
 35 91  1  0
 37 92  1  0
 37 93  1  0
 38 94  1  0
 39 95  1  0
 40 96  1  0
 41 97  1  0
 41 98  1  0
 41 99  1  0
 42100  1  0
 42101  1  0
 44102  1  0
 44103  1  0
 44104  1  0
 45105  1  0
 45106  1  0
 45107  1  0
M  END
