
     RDKit          2D

 59 65  0  0  0  0  0  0  0  0999 V2000
   18.3719  -19.2956  -14.0240 C   0  0  0  0  0  0  0  0  0  0  0  0
   17.5661  -19.5741  -12.7899 C   0  0  0  0  0  0  0  0  0  0  0  0
   16.7603  -19.8526  -11.5558 C   0  0  0  0  0  0  0  0  0  0  0  0
   17.3035  -18.6073  -10.9201 C   0  0  0  0  0  0  0  0  0  0  0  0
   16.9040  -18.2440   -9.5207 C   0  0  0  0  0  0  0  0  0  0  0  0
   16.8220  -17.4826   -8.2309 F   0  0  0  0  0  0  0  0  0  0  0  0
   15.9898  -19.3906   -9.2048 C   0  0  0  0  0  0  0  0  0  0  0  0
   15.0756  -20.5370   -8.8890 C   0  0  0  0  0  0  0  0  0  0  0  0
   14.1614  -21.6836   -8.5732 C   0  0  0  0  0  0  0  0  0  0  0  0
   13.3860  -22.9562   -8.7434 C   0  0  0  0  0  0  0  0  0  0  0  0
   14.2434  -22.4451   -9.8630 N   0  0  0  0  0  0  0  0  0  0  0  0
   17.8466  -17.3619  -10.2844 C   0  0  0  0  0  0  0  0  0  0  0  0
   18.3898  -16.1166   -9.6487 F   0  0  0  0  0  0  0  0  0  0  0  0
   18.2461  -17.7252  -11.6838 C   0  0  0  0  0  0  0  0  0  0  0  0
   18.6457  -18.0884  -13.0833 C   0  0  0  0  0  0  0  0  0  0  0  0
   19.5883  -17.2064  -13.8470 C   0  0  0  0  0  0  0  0  0  0  0  0
   19.1888  -16.8431  -12.4476 C   0  0  0  0  0  0  0  0  0  0  0  0
   16.2171  -21.0979  -12.1915 C   0  0  0  0  0  0  0  0  0  0  0  0
   15.6740  -22.3433  -12.8272 C   0  0  0  0  0  0  0  0  0  0  0  0
   16.4798  -22.0647  -14.0613 C   0  0  0  0  0  0  0  0  0  0  0  0
   17.0230  -20.8194  -13.4256 C   0  0  0  0  0  0  0  0  0  0  0  0
   17.8288  -20.5409  -14.6597 C   0  0  0  0  0  0  0  0  0  0  0  0
   18.6346  -20.2624  -15.8939 C   0  0  0  0  0  0  0  0  0  0  0  0
   19.4404  -19.9839  -17.1280 C   0  0  0  0  0  0  0  0  0  0  0  0
   20.2462  -19.7053  -18.3621 C   0  0  0  0  0  0  0  0  0  0  0  0
   21.0520  -19.4268  -19.5963 C   0  0  0  0  0  0  0  0  0  0  0  0
   21.8579  -19.1483  -20.8304 F   0  0  0  0  0  0  0  0  0  0  0  0
   19.2736  -18.8995  -15.1555 H   0  0  0  0  0  0  0  0  0  0  0  0
   18.0448  -19.7660  -14.5783 H   0  0  0  0  0  0  0  0  0  0  0  0
   19.3775  -18.2757  -13.5785 H   0  0  0  0  0  0  0  0  0  0  0  0
   18.2882  -18.2984  -12.4718 H   0  0  0  0  0  0  0  0  0  0  0  0
   15.8943  -20.2808  -10.4083 H   0  0  0  0  0  0  0  0  0  0  0  0
   16.1211  -20.0971  -10.5214 H   0  0  0  0  0  0  0  0  0  0  0  0
   15.7452  -18.8195   -7.8395 H   0  0  0  0  0  0  0  0  0  0  0  0
   15.2058  -21.2429  -10.2061 H   0  0  0  0  0  0  0  0  0  0  0  0
   14.8320  -19.9667   -7.5232 H   0  0  0  0  0  0  0  0  0  0  0  0
   13.7619  -21.3203   -7.1738 H   0  0  0  0  0  0  0  0  0  0  0  0
   12.7171  -23.0350   -7.4031 H   0  0  0  0  0  0  0  0  0  0  0  0
   12.8428  -24.2016   -9.3791 H   0  0  0  0  0  0  0  0  0  0  0  0
   14.6872  -22.7435  -11.2644 H   0  0  0  0  0  0  0  0  0  0  0  0
   18.4163  -19.1436  -14.1243 H   0  0  0  0  0  0  0  0  0  0  0  0
   19.6703  -17.9678  -15.1368 H   0  0  0  0  0  0  0  0  0  0  0  0
   20.5025  -16.0598  -14.1628 H   0  0  0  0  0  0  0  0  0  0  0  0
   19.7320  -15.5978  -11.8119 H   0  0  0  0  0  0  0  0  0  0  0  0
   15.3511  -21.5261  -11.0440 H   0  0  0  0  0  0  0  0  0  0  0  0
   15.1308  -23.5886  -13.4629 H   0  0  0  0  0  0  0  0  0  0  0  0
   14.8080  -22.7715  -11.6797 H   0  0  0  0  0  0  0  0  0  0  0  0
   17.2134  -21.9401  -15.3637 H   0  0  0  0  0  0  0  0  0  0  0  0
   15.9366  -23.3101  -14.6970 H   0  0  0  0  0  0  0  0  0  0  0  0
   18.4289  -21.9085  -14.7987 H   0  0  0  0  0  0  0  0  0  0  0  0
   17.6455  -19.1228  -15.1129 H   0  0  0  0  0  0  0  0  0  0  0  0
   19.1620  -21.6663  -15.8664 H   0  0  0  0  0  0  0  0  0  0  0  0
   18.2093  -18.8350  -16.0716 H   0  0  0  0  0  0  0  0  0  0  0  0
   19.8261  -21.4315  -17.2028 H   0  0  0  0  0  0  0  0  0  0  0  0
   19.0547  -18.5362  -17.0532 H   0  0  0  0  0  0  0  0  0  0  0  0
   19.5284  -20.8096  -19.0800 H   0  0  0  0  0  0  0  0  0  0  0  0
   20.9640  -18.6011  -17.6443 H   0  0  0  0  0  0  0  0  0  0  0  0
   20.9300  -17.9533  -19.3434 H   0  0  0  0  0  0  0  0  0  0  0  0
   21.1741  -20.9003  -19.8491 H   0  0  0  0  0  0  0  0  0  0  0  0
  1  2  1  0
  2  3  1  0
  3  4  1  0
  4  5  1  0
  5  6  1  0
  5  7  1  0
  7  8  1  0
  8  9  1  0
  9 10  1  0
 10 11  1  0
  5 12  1  0
 12 13  1  0
 12 14  1  0
 14 15  1  0
 15 16  1  0
 16 17  1  0
  3 18  1  0
 18 19  1  0
 19 20  1  0
 20 21  1  0
 21 22  1  0
 22 23  1  0
 23 24  1  0
 24 25  1  0
 25 26  1  0
 26 27  1  0
 21  2  1  0
 12  4  1  0
 17 14  1  0
 21 18  1  0
 14  4  1  0
 17 15  1  0
 11  9  1  0
  1 28  1  0
  1 29  1  0
  1 30  1  0
  2 31  1  0
  3 32  1  0
  7 33  1  0
  7 34  1  0
  8 35  1  0
  8 36  1  0
  9 37  1  0
 10 38  1  0
 10 39  1  0
 11 40  1  0
 15 41  1  0
 16 42  1  0
 16 43  1  0
 17 44  1  0
 18 45  1  0
 19 46  1  0
 19 47  1  0
 20 48  1  0
 20 49  1  0
 22 50  1  0
 22 51  1  0
 23 52  1  0
 23 53  1  0
 24 54  1  0
 24 55  1  0
 25 56  1  0
 25 57  1  0
 26 58  1  0
 26 59  1  0
M  END
