
     RDKit          2D

 75 81  0  0  0  0  0  0  0  0999 V2000
   19.9805  -27.5533  -15.9688 C   0  0  0  0  0  0  0  0  0  0  0  0
   18.8781  -28.5385  -15.7159 C   0  0  0  0  0  0  0  0  0  0  0  0
   17.7756  -29.5238  -15.4629 C   0  0  0  0  0  0  0  0  0  0  0  0
   18.4896  -27.7860  -14.4778 C   0  0  0  0  0  0  0  0  0  0  0  0
   19.5101  -26.6871  -14.5100 C   0  0  0  0  0  0  0  0  0  0  0  0
   18.5024  -26.7426  -13.4002 C   0  0  0  0  0  0  0  0  0  0  0  0
   17.4948  -26.7981  -12.2905 C   0  0  0  0  0  0  0  0  0  0  0  0
   18.0914  -25.5613  -11.6869 C   0  0  0  0  0  0  0  0  0  0  0  0
   18.6880  -24.3244  -11.0834 C   0  0  0  0  0  0  0  0  0  0  0  0
   19.2846  -23.0876  -10.4798 O   0  0  0  0  0  0  0  0  0  0  0  0
   17.5466  -24.2474  -10.1131 O   0  0  0  0  0  0  0  0  0  0  0  0
   17.4927  -23.1377   -9.1052 C   0  0  0  0  0  0  0  0  0  0  0  0
       nan       nan       nan C   0  0  0  0  0  0  0  0  0  0  0  0
   16.2064  -23.6898   -8.5662 C   0  0  0  0  0  0  0  0  0  0  0  0
   14.9200  -24.2420   -8.0272 C   0  0  0  0  0  0  0  0  0  0  0  0
   16.1524  -22.5802   -7.5584 C   0  0  0  0  0  0  0  0  0  0  0  0
   16.7488  -21.3431   -6.9551 C   0  0  0  0  0  0  0  0  0  0  0  0
   15.7287  -21.0528   -5.8943 C   0  0  0  0  0  0  0  0  0  0  0  0
   15.8988  -19.8642   -4.9954 C   0  0  0  0  0  0  0  0  0  0  0  0
   14.8788  -19.5738   -3.9346 C   0  0  0  0  0  0  0  0  0  0  0  0
   15.6652  -18.3700   -3.5078 C   0  0  0  0  0  0  0  0  0  0  0  0
   13.8587  -19.2836   -2.8739 C   0  0  0  0  0  0  0  0  0  0  0  0
   12.6820  -18.4068   -3.1848 N   0  0  0  0  0  0  0  0  0  0  0  0
   17.4387  -22.0281   -8.0974 C   0  0  0  0  0  0  0  0  0  0  0  0
   19.0990  -25.5058  -12.7967 C   0  0  0  0  0  0  0  0  0  0  0  0
   20.1196  -24.4068  -12.8288 C   0  0  0  0  0  0  0  0  0  0  0  0
   21.1272  -24.3514  -13.9386 C   0  0  0  0  0  0  0  0  0  0  0  0
   21.8898  -23.1237  -13.5369 C   0  0  0  0  0  0  0  0  0  0  0  0
   21.8700  -24.7223  -15.1878 C   0  0  0  0  0  0  0  0  0  0  0  0
   22.6129  -25.0932  -16.4371 C   0  0  0  0  0  0  0  0  0  0  0  0
   22.7756  -23.5413  -15.0000 C   0  0  0  0  0  0  0  0  0  0  0  0
   20.1067  -25.4503  -13.9064 C   0  0  0  0  0  0  0  0  0  0  0  0
   21.1221  -26.6672  -16.3708 H   0  0  0  0  0  0  0  0  0  0  0  0
   20.3696  -28.3064  -17.2063 H   0  0  0  0  0  0  0  0  0  0  0  0
   19.8697  -26.5842  -14.8293 H   0  0  0  0  0  0  0  0  0  0  0  0
   19.2665  -29.2911  -16.9539 H   0  0  0  0  0  0  0  0  0  0  0  0
   16.6732  -30.5090  -15.2099 H   0  0  0  0  0  0  0  0  0  0  0  0
   18.1656  -30.2777  -16.6997 H   0  0  0  0  0  0  0  0  0  0  0  0
   17.2542  -28.8955  -14.2046 H   0  0  0  0  0  0  0  0  0  0  0  0
   17.3196  -28.5062  -13.8758 H   0  0  0  0  0  0  0  0  0  0  0  0
   20.5073  -26.6532  -15.6301 H   0  0  0  0  0  0  0  0  0  0  0  0
   16.4871  -26.8536  -11.1808 H   0  0  0  0  0  0  0  0  0  0  0  0
   16.8982  -28.0349  -12.8941 H   0  0  0  0  0  0  0  0  0  0  0  0
   17.0837  -25.6167  -10.5772 H   0  0  0  0  0  0  0  0  0  0  0  0
   19.9397  -24.0998  -11.8788 H   0  0  0  0  0  0  0  0  0  0  0  0
   18.5660  -22.3702   -9.3757 H   0  0  0  0  0  0  0  0  0  0  0  0
       nan       nan       nan H   0  0  0  0  0  0  0  0  0  0  0  0
       nan       nan       nan H   0  0  0  0  0  0  0  0  0  0  0  0
       nan       nan       nan H   0  0  0  0  0  0  0  0  0  0  0  0
   16.4167  -24.7240   -9.6322 H   0  0  0  0  0  0  0  0  0  0  0  0
   13.6338  -24.7941   -7.4882 H   0  0  0  0  0  0  0  0  0  0  0  0
   14.9746  -25.3523   -9.0343 H   0  0  0  0  0  0  0  0  0  0  0  0
   14.7091  -23.2073   -6.9619 H   0  0  0  0  0  0  0  0  0  0  0  0
   14.9395  -22.6764   -6.6811 H   0  0  0  0  0  0  0  0  0  0  0  0
   17.6994  -20.2069   -6.7202 H   0  0  0  0  0  0  0  0  0  0  0  0
   14.5384  -21.9512   -5.7325 H   0  0  0  0  0  0  0  0  0  0  0  0
   17.1401  -19.0766   -5.2939 H   0  0  0  0  0  0  0  0  0  0  0  0
   14.0923  -20.7777   -4.3614 H   0  0  0  0  0  0  0  0  0  0  0  0
   16.4517  -17.1661   -3.0810 H   0  0  0  0  0  0  0  0  0  0  0  0
   14.6422  -17.8079   -2.5657 H   0  0  0  0  0  0  0  0  0  0  0  0
   16.8799  -18.6386   -4.3459 H   0  0  0  0  0  0  0  0  0  0  0  0
   13.8595  -19.7837   -1.4598 H   0  0  0  0  0  0  0  0  0  0  0  0
   11.6620  -18.1166   -2.1240 H   0  0  0  0  0  0  0  0  0  0  0  0
   18.6672  -21.2076   -8.3572 H   0  0  0  0  0  0  0  0  0  0  0  0
   20.1324  -23.3635  -11.7513 H   0  0  0  0  0  0  0  0  0  0  0  0
   22.6522  -21.8960  -13.1352 H   0  0  0  0  0  0  0  0  0  0  0  0
   22.9369  -22.9823  -14.6015 H   0  0  0  0  0  0  0  0  0  0  0  0
   21.0006  -22.9633  -12.3395 H   0  0  0  0  0  0  0  0  0  0  0  0
   20.9645  -25.9033  -15.3757 H   0  0  0  0  0  0  0  0  0  0  0  0
   23.3558  -25.4640  -17.6863 H   0  0  0  0  0  0  0  0  0  0  0  0
   21.8108  -26.3160  -16.7706 H   0  0  0  0  0  0  0  0  0  0  0  0
   23.5962  -23.9607  -16.4081 H   0  0  0  0  0  0  0  0  0  0  0  0
   23.6811  -22.3603  -14.8121 H   0  0  0  0  0  0  0  0  0  0  0  0
   23.6236  -23.7658  -16.2167 H   0  0  0  0  0  0  0  0  0  0  0  0
   22.2736  -22.8954  -13.7427 H   0  0  0  0  0  0  0  0  0  0  0  0
  1  2  1  0
  2  3  1  0
  2  4  1  0
  4  5  1  0
  5  6  1  0
  6  7  1  6
  7  8  1  0
  8  9  1  0
  9 10  1  0
  9 11  1  0
 12 11  1  6
 12 13  1  0
 12 14  1  0
 14 15  1  0
 14 16  1  0
 16 17  1  0
 17 18  1  0
 18 19  2  3
 19 20  1  0
 20 21  1  0
 20 22  1  0
 22 23  2  3
 17 24  1  0
  8 25  1  0
 25 26  1  0
 26 27  1  0
 27 28  1  1
 27 29  1  0
 29 30  1  0
 29 31  1  0
 32 27  1  6
  6  4  1  0
 24 12  1  0
 32 25  1  0
 32  5  1  0
 25  6  1  6
 32 26  1  0
 24 16  1  0
  1 33  1  0
  1 34  1  0
  1 35  1  0
  2 36  1  0
  3 37  1  0
  3 38  1  0
  3 39  1  0
  4 40  1  1
  5 41  1  6
  7 42  1  0
  7 43  1  0
  8 44  1  1
  9 45  1  6
 10 46  1  0
 13 47  1  0
 13 48  1  0
 13 49  1  0
 14 50  1  6
 15 51  1  0
 15 52  1  0
 15 53  1  0
 16 54  1  6
 17 55  1  6
 18 56  1  0
 19 57  1  0
 20 58  1  1
 21 59  1  0
 21 60  1  0
 21 61  1  0
 22 62  1  0
 23 63  1  0
 24 64  1  6
 26 65  1  1
 28 66  1  0
 28 67  1  0
 28 68  1  0
 29 69  1  0
 30 70  1  0
 30 71  1  0
 30 72  1  0
 31 73  1  0
 31 74  1  0
 31 75  1  0
M  END
