
     RDKit          2D

 31 31  0  0  0  0  0  0  0  0999 V2000
   14.3484  -18.3016   -2.2261 C   0  0  0  0  0  0  0  0  0  0  0  0
   14.9157  -17.3192   -1.2447 N   0  0  0  0  0  0  0  0  0  0  0  0
   15.6982  -16.1368   -1.7343 C   0  0  0  0  0  0  0  0  0  0  0  0
   16.4807  -14.9544   -2.2238 C   0  0  0  0  0  0  0  0  0  0  0  0
   17.2632  -13.7721   -2.7134 C   0  0  0  0  0  0  0  0  0  0  0  0
   18.0457  -12.5897   -3.2030 C   0  0  0  0  0  0  0  0  0  0  0  0
   18.8282  -11.4073   -3.6925 C   0  0  0  0  0  0  0  0  0  0  0  0
   19.6106  -10.2249   -4.1820 C   0  0  0  0  0  0  0  0  0  0  0  0
   20.3932   -9.0425   -4.6716 C   0  0  0  0  0  0  0  0  0  0  0  0
   20.7293   -8.3924   -3.3623 O   0  0  0  0  0  0  0  0  0  0  0  0
   21.1980   -7.7770   -4.6474 C   0  0  0  0  0  0  0  0  0  0  0  0
   21.4131   -7.5769   -6.1183 O   0  0  0  0  0  0  0  0  0  0  0  0
   13.7811  -19.2839   -3.2075 H   0  0  0  0  0  0  0  0  0  0  0  0
   14.3537  -19.3632   -1.1665 H   0  0  0  0  0  0  0  0  0  0  0  0
   14.3431  -17.2399   -3.2857 H   0  0  0  0  0  0  0  0  0  0  0  0
   14.7006  -17.5193    0.2262 H   0  0  0  0  0  0  0  0  0  0  0  0
   15.3061  -15.3690   -0.5067 H   0  0  0  0  0  0  0  0  0  0  0  0
   16.0904  -16.9046   -2.9618 H   0  0  0  0  0  0  0  0  0  0  0  0
   16.6972  -14.5112   -0.8073 H   0  0  0  0  0  0  0  0  0  0  0  0
   16.2642  -15.3977   -3.6404 H   0  0  0  0  0  0  0  0  0  0  0  0
   17.0589  -14.2231   -4.1293 H   0  0  0  0  0  0  0  0  0  0  0  0
   17.4675  -13.3210   -1.2975 H   0  0  0  0  0  0  0  0  0  0  0  0
   18.4898  -12.3024   -1.7993 H   0  0  0  0  0  0  0  0  0  0  0  0
   17.6016  -12.8769   -4.6066 H   0  0  0  0  0  0  0  0  0  0  0  0
   18.6315  -11.8633   -5.1079 H   0  0  0  0  0  0  0  0  0  0  0  0
   19.0248  -10.9513   -2.2771 H   0  0  0  0  0  0  0  0  0  0  0  0
   19.8144   -9.7734   -2.7662 H   0  0  0  0  0  0  0  0  0  0  0  0
   19.4069  -10.6763   -5.5980 H   0  0  0  0  0  0  0  0  0  0  0  0
   20.3288   -9.2820   -6.1510 H   0  0  0  0  0  0  0  0  0  0  0  0
   21.9281   -6.5809   -4.1124 H   0  0  0  0  0  0  0  0  0  0  0  0
   22.1956   -6.3945   -6.6079 H   0  0  0  0  0  0  0  0  0  0  0  0
  1  2  1  0
  2  3  1  0
  3  4  1  0
  4  5  1  0
  5  6  1  0
  6  7  1  0
  7  8  1  0
  8  9  1  0
  9 10  1  0
 10 11  1  0
 11 12  1  0
 11  9  1  0
  1 13  1  0
  1 14  1  0
  1 15  1  0
  2 16  1  0
  3 17  1  0
  3 18  1  0
  4 19  1  0
  4 20  1  0
  5 21  1  0
  5 22  1  0
  6 23  1  0
  6 24  1  0
  7 25  1  0
  7 26  1  0
  8 27  1  0
  8 28  1  0
  9 29  1  0
 11 30  1  0
 12 31  1  0
M  END
