
     RDKit          2D

 90 93  0  0  0  0  0  0  0  0999 V2000
   13.8138   -8.0246  -10.7335 C   0  0  0  0  0  0  0  0  0  0  0  0
   14.4645   -9.3581  -10.5140 C   0  0  0  0  0  0  0  0  0  0  0  0
   15.1153  -10.6917  -10.2946 C   0  0  0  0  0  0  0  0  0  0  0  0
   15.7660  -12.0253  -10.0751 C   0  0  0  0  0  0  0  0  0  0  0  0
   16.4168  -13.3588   -9.8557 C   0  0  0  0  0  0  0  0  0  0  0  0
   17.0675  -14.6924   -9.6363 C   0  0  0  0  0  0  0  0  0  0  0  0
   17.7183  -16.0259   -9.4168 C   0  0  0  0  0  0  0  0  0  0  0  0
   18.3690  -17.3595   -9.1974 C   0  0  0  0  0  0  0  0  0  0  0  0
   19.0198  -18.6930   -8.9779 C   0  0  0  0  0  0  0  0  0  0  0  0
   19.6705  -20.0266   -8.7585 C   0  0  0  0  0  0  0  0  0  0  0  0
   20.3213  -21.3601   -8.5390 C   0  0  0  0  0  0  0  0  0  0  0  0
   20.9720  -22.6937   -8.3196 C   0  0  0  0  0  0  0  0  0  0  0  0
   22.0445  -23.7339   -8.1867 C   0  0  0  0  0  0  0  0  0  0  0  0
   22.4124  -22.3123   -8.4928 S   0  0  0  0  0  0  0  0  0  0  0  0
   19.1475  -21.7971   -7.7137 C   0  0  0  0  0  0  0  0  0  0  0  0
   20.0536  -22.6511   -6.8772 N   0  0  0  0  0  0  0  0  0  0  0  0
   17.9737  -22.2341   -6.8883 C   0  0  0  0  0  0  0  0  0  0  0  0
   16.7998  -22.6711   -6.0630 C   0  0  0  0  0  0  0  0  0  0  0  0
   18.8754  -23.1094   -6.0693 O   0  0  0  0  0  0  0  0  0  0  0  0
   18.3038  -24.2621   -5.2982 C   0  0  0  0  0  0  0  0  0  0  0  0
   17.7321  -25.4148   -4.5271 C   0  0  0  0  0  0  0  0  0  0  0  0
   17.1605  -26.5674   -3.7561 C   0  0  0  0  0  0  0  0  0  0  0  0
   16.5889  -27.7201   -2.9850 C   0  0  0  0  0  0  0  0  0  0  0  0
   15.1155  -27.9975   -3.0329 C   0  0  0  0  0  0  0  0  0  0  0  0
   14.5439  -29.1502   -2.2619 C   0  0  0  0  0  0  0  0  0  0  0  0
   15.4456  -30.0255   -1.4429 C   0  0  0  0  0  0  0  0  0  0  0  0
   16.9190  -29.7481   -1.3949 C   0  0  0  0  0  0  0  0  0  0  0  0
   17.4906  -28.5954   -2.1660 C   0  0  0  0  0  0  0  0  0  0  0  0
   19.6748  -24.6063   -4.7966 O   0  0  0  0  0  0  0  0  0  0  0  0
   19.8653  -25.7768   -3.8779 C   0  0  0  0  0  0  0  0  0  0  0  0
   20.0558  -26.9471   -2.9593 C   0  0  0  0  0  0  0  0  0  0  0  0
   20.2463  -28.1176   -2.0406 O   0  0  0  0  0  0  0  0  0  0  0  0
   18.5824  -27.2247   -3.0073 O   0  0  0  0  0  0  0  0  0  0  0  0
   16.3565  -10.0056   -9.8060 C   0  0  0  0  0  0  0  0  0  0  0  0
   17.5977   -9.3195   -9.3175 C   0  0  0  0  0  0  0  0  0  0  0  0
   17.7492   -7.8364   -9.4825 C   0  0  0  0  0  0  0  0  0  0  0  0
   18.8389   -8.6335   -8.8289 N   0  0  0  0  0  0  0  0  0  0  0  0
   18.6874  -10.1166   -8.6639 C   0  0  0  0  0  0  0  0  0  0  0  0
   13.1630   -6.6910  -10.9529 H   0  0  0  0  0  0  0  0  0  0  0  0
   12.4623   -8.6657  -10.6215 H   0  0  0  0  0  0  0  0  0  0  0  0
   15.1653   -7.3835  -10.8455 H   0  0  0  0  0  0  0  0  0  0  0  0
   13.1773  -10.0439  -10.8643 H   0  0  0  0  0  0  0  0  0  0  0  0
   15.6629   -8.5150  -10.1931 H   0  0  0  0  0  0  0  0  0  0  0  0
   13.8741  -11.3778  -10.7832 H   0  0  0  0  0  0  0  0  0  0  0  0
   14.4146  -12.6663   -9.9631 H   0  0  0  0  0  0  0  0  0  0  0  0
   17.1867  -11.5515  -10.1596 H   0  0  0  0  0  0  0  0  0  0  0  0
   17.7683  -12.7178   -9.9677 H   0  0  0  0  0  0  0  0  0  0  0  0
   15.0653  -13.9999   -9.7437 H   0  0  0  0  0  0  0  0  0  0  0  0
   18.3686  -14.1402  -10.1386 H   0  0  0  0  0  0  0  0  0  0  0  0
   15.7665  -15.2446   -9.1339 H   0  0  0  0  0  0  0  0  0  0  0  0
   19.0653  -15.4058   -9.6427 H   0  0  0  0  0  0  0  0  0  0  0  0
   16.3713  -16.6461   -9.1909 H   0  0  0  0  0  0  0  0  0  0  0  0
   19.4868  -16.9653  -10.1167 H   0  0  0  0  0  0  0  0  0  0  0  0
   17.2513  -17.7536   -8.2780 H   0  0  0  0  0  0  0  0  0  0  0  0
   17.7562  -19.3798   -9.4041 H   0  0  0  0  0  0  0  0  0  0  0  0
   20.2834  -18.0063   -8.5517 H   0  0  0  0  0  0  0  0  0  0  0  0
   18.3536  -20.3589   -8.1219 H   0  0  0  0  0  0  0  0  0  0  0  0
   20.9175  -19.5281   -9.4268 H   0  0  0  0  0  0  0  0  0  0  0  0
   21.4951  -20.9232   -9.3644 H   0  0  0  0  0  0  0  0  0  0  0  0
   20.4584  -23.2842   -8.1679 H   0  0  0  0  0  0  0  0  0  0  0  0
   21.2027  -24.9397   -7.8912 H   0  0  0  0  0  0  0  0  0  0  0  0
   23.4094  -24.3554   -8.1566 H   0  0  0  0  0  0  0  0  0  0  0  0
   18.1051  -21.0028   -8.4433 H   0  0  0  0  0  0  0  0  0  0  0  0
   21.5274  -22.9300   -6.8898 H   0  0  0  0  0  0  0  0  0  0  0  0
   19.8387  -23.5586   -5.7024 H   0  0  0  0  0  0  0  0  0  0  0  0
   17.0719  -21.3588   -7.7073 H   0  0  0  0  0  0  0  0  0  0  0  0
   15.6260  -23.1081   -5.2376 H   0  0  0  0  0  0  0  0  0  0  0  0
   15.9281  -21.6830   -6.7797 H   0  0  0  0  0  0  0  0  0  0  0  0
   17.1929  -23.7502   -5.0980 H   0  0  0  0  0  0  0  0  0  0  0  0
   16.8733  -24.0609   -5.7022 H   0  0  0  0  0  0  0  0  0  0  0  0
   18.8081  -26.1533   -3.7876 H   0  0  0  0  0  0  0  0  0  0  0  0
   16.3601  -25.0663   -5.0233 H   0  0  0  0  0  0  0  0  0  0  0  0
   18.3046  -27.0407   -2.9093 H   0  0  0  0  0  0  0  0  0  0  0  0
   15.8388  -26.3671   -4.4365 H   0  0  0  0  0  0  0  0  0  0  0  0
   14.2138  -27.1223   -3.8519 H   0  0  0  0  0  0  0  0  0  0  0  0
   13.0705  -29.4276   -2.3098 H   0  0  0  0  0  0  0  0  0  0  0  0
   14.8740  -31.1782   -0.6718 H   0  0  0  0  0  0  0  0  0  0  0  0
   17.8207  -30.6234   -0.5759 H   0  0  0  0  0  0  0  0  0  0  0  0
   18.9640  -28.3180   -2.1181 H   0  0  0  0  0  0  0  0  0  0  0  0
   18.4256  -26.1925   -3.8105 H   0  0  0  0  0  0  0  0  0  0  0  0
   21.3392  -25.5017   -3.8330 H   0  0  0  0  0  0  0  0  0  0  0  0
   21.5291  -26.6697   -2.9112 H   0  0  0  0  0  0  0  0  0  0  0  0
   21.6173  -28.4619   -1.5389 H   0  0  0  0  0  0  0  0  0  0  0  0
   18.3590  -28.4237   -2.1342 H   0  0  0  0  0  0  0  0  0  0  0  0
   16.0828   -8.6681  -10.4275 H   0  0  0  0  0  0  0  0  0  0  0  0
   16.9328  -11.1758   -9.0654 H   0  0  0  0  0  0  0  0  0  0  0  0
   16.4502   -7.5157  -10.1606 H   0  0  0  0  0  0  0  0  0  0  0  0
   18.3519   -6.4646   -9.4120 H   0  0  0  0  0  0  0  0  0  0  0  0
   19.9864  -10.4373   -7.9858 H   0  0  0  0  0  0  0  0  0  0  0  0
   18.0847  -11.4884   -8.7343 H   0  0  0  0  0  0  0  0  0  0  0  0
  1  2  1  0
  2  3  1  0
  3  4  1  0
  4  5  1  0
  5  6  1  0
  6  7  1  0
  7  8  1  0
  8  9  1  0
  9 10  1  0
 10 11  1  0
 11 12  1  0
 12 13  1  0
 13 14  1  0
 11 15  1  0
 15 16  1  0
 15 17  1  0
 17 18  1  0
 17 19  1  0
 19 20  1  0
 20 21  1  0
 21 22  1  0
 22 23  1  0
 23 24  2  0
 24 25  1  0
 25 26  2  0
 26 27  1  0
 27 28  2  0
 20 29  1  0
 29 30  1  0
 30 31  1  0
 31 32  1  0
 31 33  1  0
  3 34  1  0
 34 35  1  0
 35 36  1  0
 36 37  1  0
 37 38  1  0
 14 12  1  0
 28 23  1  0
 37 35  1  0
 38 35  1  0
  1 39  1  0
  1 40  1  0
  1 41  1  0
  2 42  1  0
  2 43  1  0
  3 44  1  0
  4 45  1  0
  4 46  1  0
  5 47  1  0
  5 48  1  0
  6 49  1  0
  6 50  1  0
  7 51  1  0
  7 52  1  0
  8 53  1  0
  8 54  1  0
  9 55  1  0
  9 56  1  0
 10 57  1  0
 10 58  1  0
 11 59  1  0
 12 60  1  0
 13 61  1  0
 13 62  1  0
 15 63  1  0
 16 64  1  0
 16 65  1  0
 17 66  1  0
 18 67  1  0
 18 68  1  0
 18 69  1  0
 20 70  1  0
 21 71  1  0
 21 72  1  0
 22 73  1  0
 22 74  1  0
 24 75  1  0
 25 76  1  0
 26 77  1  0
 27 78  1  0
 28 79  1  0
 30 80  1  0
 30 81  1  0
 31 82  1  0
 32 83  1  0
 33 84  1  0
 34 85  1  0
 34 86  1  0
 36 87  1  0
 36 88  1  0
 38 89  1  0
 38 90  1  0
M  END
