
     RDKit          2D

 51 56  0  0  0  0  0  0  0  0999 V2000
    4.0205   29.4540   15.0852 F   0  0  0  0  0  0  0  0  0  0  0  0
    5.3491   28.7579   15.0993 C   0  0  0  0  0  0  0  0  0  0  0  0
    6.6777   28.0617   15.1136 C   0  0  0  0  0  0  0  0  0  0  0  0
    6.4984   27.6900   13.6714 C   0  0  0  0  0  0  0  0  0  0  0  0
    7.8270   26.9939   13.6856 C   0  0  0  0  0  0  0  0  0  0  0  0
    9.1556   26.2978   13.6998 C   0  0  0  0  0  0  0  0  0  0  0  0
   10.4176   25.5389   13.4141 C   0  0  0  0  0  0  0  0  0  0  0  0
   11.2385   25.5153   14.6693 O   0  0  0  0  0  0  0  0  0  0  0  0
   10.4839   26.2595   15.7308 C   0  0  0  0  0  0  0  0  0  0  0  0
    9.5153   27.0429   16.5664 C   0  0  0  0  0  0  0  0  0  0  0  0
    9.1966   26.7431   15.1317 C   0  0  0  0  0  0  0  0  0  0  0  0
    5.1698   28.3862   13.6572 C   0  0  0  0  0  0  0  0  0  0  0  0
    4.9904   28.0145   12.2151 C   0  0  0  0  0  0  0  0  0  0  0  0
    3.7535   28.7830   12.5747 C   0  0  0  0  0  0  0  0  0  0  0  0
    2.5131   29.1999   11.8414 C   0  0  0  0  0  0  0  0  0  0  0  0
    1.9960   29.0210   10.4447 C   0  0  0  0  0  0  0  0  0  0  0  0
    1.1764   29.0471    9.1887 C   0  0  0  0  0  0  0  0  0  0  0  0
    2.5051   28.3511    9.2029 C   0  0  0  0  0  0  0  0  0  0  0  0
    3.7421   27.5826    8.8433 C   0  0  0  0  0  0  0  0  0  0  0  0
    4.8031   26.7941    8.1345 C   0  0  0  0  0  0  0  0  0  0  0  0
    4.9825   27.1657    9.5766 C   0  0  0  0  0  0  0  0  0  0  0  0
    5.4995   27.3447   10.9733 C   0  0  0  0  0  0  0  0  0  0  0  0
    5.5284   29.1296   16.5414 H   0  0  0  0  0  0  0  0  0  0  0  0
    6.8571   28.4334   16.5557 H   0  0  0  0  0  0  0  0  0  0  0  0
    8.0063   27.3656   15.1278 H   0  0  0  0  0  0  0  0  0  0  0  0
    6.7618   27.7922   14.4169 H   0  0  0  0  0  0  0  0  0  0  0  0
    7.8105   26.9932   15.1856 H   0  0  0  0  0  0  0  0  0  0  0  0
    7.8434   26.9947   12.1857 H   0  0  0  0  0  0  0  0  0  0  0  0
    8.8369   25.9980   12.2651 H   0  0  0  0  0  0  0  0  0  0  0  0
    9.8350   25.3978   12.0390 H   0  0  0  0  0  0  0  0  0  0  0  0
   11.5577   24.7507   12.8409 H   0  0  0  0  0  0  0  0  0  0  0  0
   11.5073   26.0721   16.8113 H   0  0  0  0  0  0  0  0  0  0  0  0
   10.2603   27.0744   17.8680 H   0  0  0  0  0  0  0  0  0  0  0  0
    8.2880   27.8153   16.9500 H   0  0  0  0  0  0  0  0  0  0  0  0
    7.8680   27.4393   15.1175 H   0  0  0  0  0  0  0  0  0  0  0  0
    3.8730   29.1225   13.8189 H   0  0  0  0  0  0  0  0  0  0  0  0
    6.2895   27.5085   12.7685 H   0  0  0  0  0  0  0  0  0  0  0  0
    3.0768   29.5044   13.7024 H   0  0  0  0  0  0  0  0  0  0  0  0
    4.1384   29.0413   14.0013 H   0  0  0  0  0  0  0  0  0  0  0  0
    1.1844   29.8959   11.8272 H   0  0  0  0  0  0  0  0  0  0  0  0
    2.1816   29.8052   13.1732 H   0  0  0  0  0  0  0  0  0  0  0  0
    0.8371   29.8062   10.9835 H   0  0  0  0  0  0  0  0  0  0  0  0
   -0.0108   29.8283    9.6687 H   0  0  0  0  0  0  0  0  0  0  0  0
    0.7691   28.8019    7.7660 H   0  0  0  0  0  0  0  0  0  0  0  0
    2.1539   28.0735    7.7713 H   0  0  0  0  0  0  0  0  0  0  0  0
    3.0679   27.5056    7.5055 H   0  0  0  0  0  0  0  0  0  0  0  0
    4.1802   26.6829    6.7745 H   0  0  0  0  0  0  0  0  0  0  0  0
    6.0804   26.0441    7.8980 H   0  0  0  0  0  0  0  0  0  0  0  0
    6.2763   26.4272    9.4024 H   0  0  0  0  0  0  0  0  0  0  0  0
    6.6569   27.0250   11.8722 H   0  0  0  0  0  0  0  0  0  0  0  0
    6.5605   26.5561   10.2645 H   0  0  0  0  0  0  0  0  0  0  0  0
  1  2  1  0
  2  3  1  0
  3  4  1  0
  4  5  1  0
  5  6  1  0
  6  7  1  0
  7  8  1  0
  8  9  1  0
  9 10  1  0
 10 11  1  0
  4 12  1  0
 12 13  1  0
 13 14  1  0
 14 15  1  0
 15 16  1  0
 16 17  1  0
 17 18  1  0
 18 19  1  0
 19 20  1  0
 20 21  1  0
 21 22  1  0
 12  2  1  0
 22 13  1  0
 11  6  1  0
 18 16  1  0
 21 19  1  0
 11  9  1  0
  2 23  1  0
  3 24  1  0
  3 25  1  0
  4 26  1  0
  5 27  1  0
  5 28  1  0
  6 29  1  0
  7 30  1  0
  7 31  1  0
  9 32  1  0
 10 33  1  0
 10 34  1  0
 11 35  1  0
 12 36  1  0
 13 37  1  0
 14 38  1  0
 14 39  1  0
 15 40  1  0
 15 41  1  0
 16 42  1  0
 17 43  1  0
 17 44  1  0
 18 45  1  0
 19 46  1  0
 20 47  1  0
 20 48  1  0
 21 49  1  0
 22 50  1  0
 22 51  1  0
M  END
