
     RDKit          2D

 27 28  0  0  0  0  0  0  0  0999 V2000
   12.8698  -22.3843   -2.4640 F   0  0  0  0  0  0  0  0  0  0  0  0
   13.5393  -21.4668   -3.4438 C   0  0  0  0  0  0  0  0  0  0  0  0
   14.2156  -20.2483   -3.9986 C   0  0  0  0  0  0  0  0  0  0  0  0
   14.6398  -20.2153   -5.4369 C   0  0  0  0  0  0  0  0  0  0  0  0
   14.3878  -21.4008   -6.3206 C   0  0  0  0  0  0  0  0  0  0  0  0
   13.7115  -22.6194   -5.7659 C   0  0  0  0  0  0  0  0  0  0  0  0
   13.2873  -22.6524   -4.3275 C   0  0  0  0  0  0  0  0  0  0  0  0
   13.1065  -23.8226   -5.4384 C   0  0  0  0  0  0  0  0  0  0  0  0
   13.6550  -23.4315   -6.7786 C   0  0  0  0  0  0  0  0  0  0  0  0
   14.3313  -22.2130   -7.3333 N   0  0  0  0  0  0  0  0  0  0  0  0
   14.7392  -20.8808   -6.7775 C   0  0  0  0  0  0  0  0  0  0  0  0
   13.5589  -20.5999   -2.2199 H   0  0  0  0  0  0  0  0  0  0  0  0
   14.0003  -19.8045   -2.5820 H   0  0  0  0  0  0  0  0  0  0  0  0
   14.8171  -18.8756   -4.0613 H   0  0  0  0  0  0  0  0  0  0  0  0
   15.3162  -18.9967   -5.9916 H   0  0  0  0  0  0  0  0  0  0  0  0
   15.0040  -20.7628   -7.5302 H   0  0  0  0  0  0  0  0  0  0  0  0
   14.2898  -21.9873   -6.8515 H   0  0  0  0  0  0  0  0  0  0  0  0
   14.0774  -22.7317   -7.2162 H   0  0  0  0  0  0  0  0  0  0  0  0
   13.2064  -24.0018   -6.0557 H   0  0  0  0  0  0  0  0  0  0  0  0
   12.6110  -23.8710   -3.7728 H   0  0  0  0  0  0  0  0  0  0  0  0
   12.7789  -25.0874   -6.1751 H   0  0  0  0  0  0  0  0  0  0  0  0
   12.4275  -24.8274   -4.5555 H   0  0  0  0  0  0  0  0  0  0  0  0
   13.9261  -23.7589   -8.2171 H   0  0  0  0  0  0  0  0  0  0  0  0
   13.1747  -24.8052   -7.1424 H   0  0  0  0  0  0  0  0  0  0  0  0
   14.6820  -22.3614   -8.7841 H   0  0  0  0  0  0  0  0  0  0  0  0
   15.3668  -19.5315   -6.9664 H   0  0  0  0  0  0  0  0  0  0  0  0
   15.1635  -20.8478   -8.2159 H   0  0  0  0  0  0  0  0  0  0  0  0
  1  2  1  0
  2  3  1  0
  3  4  1  0
  4  5  1  0
  5  6  1  0
  6  7  1  0
  7  8  1  0
  8  9  1  0
  9 10  1  0
 10 11  1  0
  7  2  1  0
 11  4  1  0
  2 12  1  0
  3 13  1  0
  3 14  1  0
  4 15  1  0
  5 16  1  0
  5 17  1  0
  6 18  1  0
  6 19  1  0
  7 20  1  0
  8 21  1  0
  8 22  1  0
  9 23  1  0
  9 24  1  0
 10 25  1  0
 11 26  1  0
 11 27  1  0
M  END
