
     RDKit          2D

 24 23  0  0  0  0  0  0  0  0999 V2000
   16.0340  -19.5198   -0.7882 C   0  0  0  0  0  0  0  0  0  0  0  0
   15.5513  -18.2121   -1.3422 C   0  0  0  0  0  0  0  0  0  0  0  0
   15.9920  -16.9231   -0.7142 C   0  0  0  0  0  0  0  0  0  0  0  0
   16.4327  -15.6342   -0.0862 C   0  0  0  0  0  0  0  0  0  0  0  0
   16.8735  -14.3451    0.5418 C   0  0  0  0  0  0  0  0  0  0  0  0
   14.6279  -18.1933   -2.5241 N   0  0  0  0  0  0  0  0  0  0  0  0
   14.1872  -19.4822   -3.1521 C   0  0  0  0  0  0  0  0  0  0  0  0
   13.7465  -20.7712   -3.7801 C   0  0  0  0  0  0  0  0  0  0  0  0
   13.3058  -22.0602   -4.4081 O   0  0  0  0  0  0  0  0  0  0  0  0
   15.5933  -20.8087   -1.4162 H   0  0  0  0  0  0  0  0  0  0  0  0
   16.9574  -19.5385    0.3937 H   0  0  0  0  0  0  0  0  0  0  0  0
   15.1774  -16.1573   -1.7142 H   0  0  0  0  0  0  0  0  0  0  0  0
   16.8067  -17.6888    0.2858 H   0  0  0  0  0  0  0  0  0  0  0  0
   17.2459  -16.3999    0.9149 H   0  0  0  0  0  0  0  0  0  0  0  0
   15.6195  -14.8684   -1.0873 H   0  0  0  0  0  0  0  0  0  0  0  0
   17.3142  -13.0562    1.1697 H   0  0  0  0  0  0  0  0  0  0  0  0
   16.0792  -13.5787   -0.4739 H   0  0  0  0  0  0  0  0  0  0  0  0
   17.6677  -15.1116    1.5574 H   0  0  0  0  0  0  0  0  0  0  0  0
   14.1452  -16.8855   -3.0781 H   0  0  0  0  0  0  0  0  0  0  0  0
   13.7430  -18.7348   -4.3744 H   0  0  0  0  0  0  0  0  0  0  0  0
   14.6314  -20.2296   -1.9298 H   0  0  0  0  0  0  0  0  0  0  0  0
   14.5670  -21.5367   -2.7847 H   0  0  0  0  0  0  0  0  0  0  0  0
   12.9260  -20.0057   -4.7754 H   0  0  0  0  0  0  0  0  0  0  0  0
   12.3824  -22.0414   -5.5900 H   0  0  0  0  0  0  0  0  0  0  0  0
  1  2  2  3
  2  3  1  0
  3  4  1  0
  4  5  1  0
  2  6  1  0
  6  7  1  0
  7  8  1  0
  8  9  1  0
  1 10  1  0
  1 11  1  0
  3 12  1  0
  3 13  1  0
  4 14  1  0
  4 15  1  0
  5 16  1  0
  5 17  1  0
  5 18  1  0
  6 19  1  0
  7 20  1  0
  7 21  1  0
  8 22  1  0
  8 23  1  0
  9 24  1  0
M  END
