
     RDKit          2D

 42 46  0  0  0  0  0  0  0  0999 V2000
   -0.5244   25.4872    2.0120 C   0  0  0  0  0  0  0  0  0  0  0  0
    0.7701   26.0604    2.5076 C   0  0  0  0  0  0  0  0  0  0  0  0
    1.7061   25.5334    1.4607 C   0  0  0  0  0  0  0  0  0  0  0  0
    3.1695   25.8545    1.5329 C   0  0  0  0  0  0  0  0  0  0  0  0
    4.1056   25.3275    0.4859 O   0  0  0  0  0  0  0  0  0  0  0  0
    1.7395   26.8166    3.3669 C   0  0  0  0  0  0  0  0  0  0  0  0
    0.2836   26.7864    3.7267 C   0  0  0  0  0  0  0  0  0  0  0  0
   -1.1799   26.4653    3.6545 C   0  0  0  0  0  0  0  0  0  0  0  0
   -2.6433   26.1443    3.5822 C   0  0  0  0  0  0  0  0  0  0  0  0
   -4.0992   26.1141    3.9421 C   0  0  0  0  0  0  0  0  0  0  0  0
   -3.1298   26.8704    4.8013 C   0  0  0  0  0  0  0  0  0  0  0  0
   -4.0658   27.3974    5.8483 C   0  0  0  0  0  0  0  0  0  0  0  0
   -5.0017   27.9244    6.8952 C   0  0  0  0  0  0  0  0  0  0  0  0
   -6.4653   27.6033    6.8230 C   0  0  0  0  0  0  0  0  0  0  0  0
   -7.4013   28.1303    7.8699 C   0  0  0  0  0  0  0  0  0  0  0  0
   -6.8738   28.9784    8.9891 C   0  0  0  0  0  0  0  0  0  0  0  0
   -5.4104   29.2995    9.0614 C   0  0  0  0  0  0  0  0  0  0  0  0
   -5.9378   28.4514    7.9422 C   0  0  0  0  0  0  0  0  0  0  0  0
   -4.4743   28.7725    8.0144 N   0  0  0  0  0  0  0  0  0  0  0  0
   -1.8190   24.9139    1.5163 H   0  0  0  0  0  0  0  0  0  0  0  0
    0.2167   24.3249    1.4204 H   0  0  0  0  0  0  0  0  0  0  0  0
   -1.0731   26.0127    2.2533 H   0  0  0  0  0  0  0  0  0  0  0  0
    1.1787   24.6854    0.3414 H   0  0  0  0  0  0  0  0  0  0  0  0
    3.7303   26.5245    2.3771 H   0  0  0  0  0  0  0  0  0  0  0  0
    4.7723   23.9975    0.6769 H   0  0  0  0  0  0  0  0  0  0  0  0
    2.2669   27.6646    4.4861 H   0  0  0  0  0  0  0  0  0  0  0  0
    2.8377   26.6845    2.8643 H   0  0  0  0  0  0  0  0  0  0  0  0
    0.3055   27.6239    4.9709 H   0  0  0  0  0  0  0  0  0  0  0  0
   -1.2359   27.2942    4.9034 H   0  0  0  0  0  0  0  0  0  0  0  0
   -1.2462   26.0137    3.0009 H   0  0  0  0  0  0  0  0  0  0  0  0
   -2.6651   25.3067    2.3381 H   0  0  0  0  0  0  0  0  0  0  0  0
   -4.6266   25.2661    2.8229 H   0  0  0  0  0  0  0  0  0  0  0  0
   -5.4550   26.2772    4.5626 H   0  0  0  0  0  0  0  0  0  0  0  0
   -1.9329   27.5169    5.4335 H   0  0  0  0  0  0  0  0  0  0  0  0
   -3.0260   28.3892    6.2786 H   0  0  0  0  0  0  0  0  0  0  0  0
   -5.2119   26.4772    5.5488 H   0  0  0  0  0  0  0  0  0  0  0  0
   -6.9927   26.7552    5.7038 H   0  0  0  0  0  0  0  0  0  0  0  0
   -8.6739   28.3947    8.6185 H   0  0  0  0  0  0  0  0  0  0  0  0
   -8.3707   27.3741    7.0108 H   0  0  0  0  0  0  0  0  0  0  0  0
   -8.2592   29.0973    9.5519 H   0  0  0  0  0  0  0  0  0  0  0  0
   -4.8830   30.1476   10.1806 H   0  0  0  0  0  0  0  0  0  0  0  0
   -6.7847   27.6573    6.9924 H   0  0  0  0  0  0  0  0  0  0  0  0
  2  1  1  1
  2  3  1  0
  3  4  2  3
  4  5  1  0
  2  6  1  0
  6  7  1  0
  7  8  1  0
  8  9  1  0
  9 10  1  0
 10 11  1  0
 11 12  1  0
 12 13  1  0
 13 14  2  0
 14 15  1  0
 15 16  1  0
 16 17  1  0
 17 18  1  0
 18 19  1  0
  7  2  1  0
 11  9  1  0
 19 13  1  0
 18 16  1  0
 19 17  1  0
  1 20  1  0
  1 21  1  0
  1 22  1  0
  3 23  1  0
  4 24  1  0
  5 25  1  0
  6 26  1  0
  6 27  1  0
  7 28  1  6
  8 29  1  0
  8 30  1  0
  9 31  1  6
 10 32  1  0
 10 33  1  0
 11 34  1  1
 12 35  1  0
 12 36  1  0
 14 37  1  0
 15 38  1  0
 15 39  1  0
 16 40  1  1
 17 41  1  1
 18 42  1  1
M  END
