
     RDKit          2D

107112  0  0  0  0  0  0  0  0999 V2000
   16.0899  -18.7443    0.7508 C   0  0  0  0  0  0  0  0  0  0  0  0
   15.8598  -19.1574   -0.6727 C   0  0  0  0  0  0  0  0  0  0  0  0
   14.5044  -18.9890   -1.2927 C   0  0  0  0  0  0  0  0  0  0  0  0
   13.1490  -18.8207   -1.9128 C   0  0  0  0  0  0  0  0  0  0  0  0
   11.7935  -18.6523   -2.5329 C   0  0  0  0  0  0  0  0  0  0  0  0
   12.3108  -19.2249   -3.8192 C   0  0  0  0  0  0  0  0  0  0  0  0
   10.9554  -19.0566   -4.4392 C   0  0  0  0  0  0  0  0  0  0  0  0
    9.6000  -18.8882   -5.0592 C   0  0  0  0  0  0  0  0  0  0  0  0
   10.4383  -18.4832   -3.1531 N   0  0  0  0  0  0  0  0  0  0  0  0
   11.4725  -19.6299   -5.7253 C   0  0  0  0  0  0  0  0  0  0  0  0
   11.9896  -20.2033   -7.0113 C   0  0  0  0  0  0  0  0  0  0  0  0
   12.5067  -20.7766   -8.2973 C   0  0  0  0  0  0  0  0  0  0  0  0
   12.8390  -19.7561   -5.1196 O   0  0  0  0  0  0  0  0  0  0  0  0
   13.9700  -20.3157   -5.9304 C   0  0  0  0  0  0  0  0  0  0  0  0
   15.1011  -20.8753   -6.7413 C   0  0  0  0  0  0  0  0  0  0  0  0
   14.8656  -21.3088   -8.1579 C   0  0  0  0  0  0  0  0  0  0  0  0
   16.4675  -21.0015   -6.1357 C   0  0  0  0  0  0  0  0  0  0  0  0
   17.6966  -21.0057   -5.2759 C   0  0  0  0  0  0  0  0  0  0  0  0
   18.8277  -21.5653   -6.0868 C   0  0  0  0  0  0  0  0  0  0  0  0
   19.7417  -22.1496   -7.1227 C   0  0  0  0  0  0  0  0  0  0  0  0
   19.9634  -22.6842   -8.5065 C   0  0  0  0  0  0  0  0  0  0  0  0
   20.1851  -23.2188   -9.8904 C   0  0  0  0  0  0  0  0  0  0  0  0
   20.4067  -23.7534  -11.2743 C   0  0  0  0  0  0  0  0  0  0  0  0
   21.6685  -23.1546   -9.6776 C   0  0  0  0  0  0  0  0  0  0  0  0
   23.1519  -23.0903   -9.4648 C   0  0  0  0  0  0  0  0  0  0  0  0
   21.8733  -22.9905  -11.1545 C   0  0  0  0  0  0  0  0  0  0  0  0
   22.0780  -22.8265  -12.6313 C   0  0  0  0  0  0  0  0  0  0  0  0
   23.5092  -22.4471  -12.3908 C   0  0  0  0  0  0  0  0  0  0  0  0
   23.7140  -22.2831  -13.8676 C   0  0  0  0  0  0  0  0  0  0  0  0
   22.2828  -22.6624  -14.1082 C   0  0  0  0  0  0  0  0  0  0  0  0
   23.2176  -22.3217  -15.2307 N   0  0  0  0  0  0  0  0  0  0  0  0
   24.6627  -21.9263  -15.1570 C   0  0  0  0  0  0  0  0  0  0  0  0
   24.3833  -21.8968  -16.6305 C   0  0  0  0  0  0  0  0  0  0  0  0
   25.5299  -21.7741  -13.9426 C   0  0  0  0  0  0  0  0  0  0  0  0
   26.4647  -21.4333  -15.0652 O   0  0  0  0  0  0  0  0  0  0  0  0
   27.8872  -21.0604  -14.7695 C   0  0  0  0  0  0  0  0  0  0  0  0
   29.3096  -20.6874  -14.4739 C   0  0  0  0  0  0  0  0  0  0  0  0
   30.7322  -20.3144  -14.1783 C   0  0  0  0  0  0  0  0  0  0  0  0
   29.0423  -20.8319  -13.0050 O   0  0  0  0  0  0  0  0  0  0  0  0
   25.1661  -21.9796  -12.5020 C   0  0  0  0  0  0  0  0  0  0  0  0
   18.5193  -22.4416   -8.8316 C   0  0  0  0  0  0  0  0  0  0  0  0
   18.2976  -21.9070   -7.4477 C   0  0  0  0  0  0  0  0  0  0  0  0
   16.8389  -21.5585   -7.4779 O   0  0  0  0  0  0  0  0  0  0  0  0
   13.6662  -19.3933   -3.1991 N   0  0  0  0  0  0  0  0  0  0  0  0
   17.4453  -18.9127    1.3708 H   0  0  0  0  0  0  0  0  0  0  0  0
   14.9646  -18.1629    1.5543 H   0  0  0  0  0  0  0  0  0  0  0  0
   16.9852  -19.7388   -1.4762 H   0  0  0  0  0  0  0  0  0  0  0  0
   14.8392  -20.0393   -2.3100 H   0  0  0  0  0  0  0  0  0  0  0  0
   14.1695  -17.9387   -0.2756 H   0  0  0  0  0  0  0  0  0  0  0  0
   12.6317  -18.2481   -0.6266 H   0  0  0  0  0  0  0  0  0  0  0  0
   11.4453  -18.1045   -1.1806 H   0  0  0  0  0  0  0  0  0  0  0  0
   11.0281  -18.4919   -2.6872 H   0  0  0  0  0  0  0  0  0  0  0  0
   13.1407  -19.8212   -4.9172 H   0  0  0  0  0  0  0  0  0  0  0  0
    8.2445  -18.7199   -5.6793 H   0  0  0  0  0  0  0  0  0  0  0  0
    8.9201  -18.3037   -3.8566 H   0  0  0  0  0  0  0  0  0  0  0  0
    9.9494  -19.4316   -6.4130 H   0  0  0  0  0  0  0  0  0  0  0  0
    9.0353  -18.0395   -2.8622 H   0  0  0  0  0  0  0  0  0  0  0  0
   10.8967  -18.1154   -1.7731 H   0  0  0  0  0  0  0  0  0  0  0  0
   10.1793  -19.5746   -6.4832 H   0  0  0  0  0  0  0  0  0  0  0  0
   10.6227  -20.0790   -7.6163 H   0  0  0  0  0  0  0  0  0  0  0  0
   13.4510  -20.5249   -6.9075 H   0  0  0  0  0  0  0  0  0  0  0  0
   13.0238  -21.3500   -9.5833 H   0  0  0  0  0  0  0  0  0  0  0  0
   13.9005  -20.7622   -7.7433 H   0  0  0  0  0  0  0  0  0  0  0  0
   11.1128  -20.7911   -8.8513 H   0  0  0  0  0  0  0  0  0  0  0  0
   13.2064  -20.4967   -7.2088 H   0  0  0  0  0  0  0  0  0  0  0  0
   14.8782  -20.2021   -4.7421 H   0  0  0  0  0  0  0  0  0  0  0  0
   13.4991  -21.1826   -8.7636 H   0  0  0  0  0  0  0  0  0  0  0  0
   15.9966  -21.8684   -8.9688 H   0  0  0  0  0  0  0  0  0  0  0  0
   15.8105  -20.4181   -4.9200 H   0  0  0  0  0  0  0  0  0  0  0  0
   16.7826  -20.4214   -4.2399 H   0  0  0  0  0  0  0  0  0  0  0  0
   18.7346  -20.8878   -4.1995 H   0  0  0  0  0  0  0  0  0  0  0  0
   19.8657  -21.4474   -5.0104 H   0  0  0  0  0  0  0  0  0  0  0  0
   21.0792  -22.2456   -6.4506 H   0  0  0  0  0  0  0  0  0  0  0  0
   21.3697  -22.8599   -8.0153 H   0  0  0  0  0  0  0  0  0  0  0  0
   18.7397  -23.3477  -10.2704 H   0  0  0  0  0  0  0  0  0  0  0  0
   20.4472  -24.2740  -12.6804 H   0  0  0  0  0  0  0  0  0  0  0  0
   21.8902  -23.9620  -11.3495 H   0  0  0  0  0  0  0  0  0  0  0  0
   18.9331  -23.6717  -11.5419 H   0  0  0  0  0  0  0  0  0  0  0  0
   21.6460  -23.3095   -8.1858 H   0  0  0  0  0  0  0  0  0  0  0  0
   24.6354  -23.0261   -9.2520 H   0  0  0  0  0  0  0  0  0  0  0  0
   23.5150  -24.2368  -10.3613 H   0  0  0  0  0  0  0  0  0  0  0  0
   22.9682  -21.9273   -8.5354 H   0  0  0  0  0  0  0  0  0  0  0  0
   23.2796  -22.4730  -11.0878 H   0  0  0  0  0  0  0  0  0  0  0  0
   20.5725  -23.4371  -11.7531 H   0  0  0  0  0  0  0  0  0  0  0  0
   20.6825  -23.1830  -13.0502 H   0  0  0  0  0  0  0  0  0  0  0  0
   24.3764  -22.2948  -11.1764 H   0  0  0  0  0  0  0  0  0  0  0  0
   24.5668  -21.9601  -15.0587 H   0  0  0  0  0  0  0  0  0  0  0  0
   25.1521  -21.8753  -13.9916 H   0  0  0  0  0  0  0  0  0  0  0  0
   21.4156  -22.8147  -15.3227 H   0  0  0  0  0  0  0  0  0  0  0  0
   22.4729  -22.4340  -16.5280 H   0  0  0  0  0  0  0  0  0  0  0  0
   25.8019  -21.5452  -16.0553 H   0  0  0  0  0  0  0  0  0  0  0  0
   24.1039  -21.8673  -18.1039 H   0  0  0  0  0  0  0  0  0  0  0  0
   25.8021  -21.4857  -16.8913 H   0  0  0  0  0  0  0  0  0  0  0  0
   22.9410  -22.3012  -16.5512 H   0  0  0  0  0  0  0  0  0  0  0  0
   26.8131  -21.4702  -13.2278 H   0  0  0  0  0  0  0  0  0  0  0  0
   28.3001  -20.7788  -16.1838 H   0  0  0  0  0  0  0  0  0  0  0  0
   27.6459  -21.2982  -13.3084 H   0  0  0  0  0  0  0  0  0  0  0  0
   29.5770  -20.5429  -15.9428 H   0  0  0  0  0  0  0  0  0  0  0  0
   32.1546  -19.9414  -13.8827 H   0  0  0  0  0  0  0  0  0  0  0  0
   30.4993  -20.5816  -12.7207 H   0  0  0  0  0  0  0  0  0  0  0  0
   31.1366  -20.0037  -15.5889 H   0  0  0  0  0  0  0  0  0  0  0  0
   27.7423  -21.2058  -12.3565 H   0  0  0  0  0  0  0  0  0  0  0  0
   26.5952  -21.6018  -12.2466 H   0  0  0  0  0  0  0  0  0  0  0  0
   25.4455  -22.0091  -11.0285 H   0  0  0  0  0  0  0  0  0  0  0  0
   17.0751  -22.1990   -9.1567 H   0  0  0  0  0  0  0  0  0  0  0  0
   18.5633  -22.9426  -10.2447 H   0  0  0  0  0  0  0  0  0  0  0  0
   14.9905  -19.9172   -3.6702 H   0  0  0  0  0  0  0  0  0  0  0  0
  1  2  2  3
  2  3  1  0
  3  4  1  0
  4  5  1  0
  5  6  1  0
  6  7  1  0
  7  8  1  0
  7  9  1  0
  7 10  1  0
 10 11  1  0
 11 12  1  0
 10 13  1  0
 13 14  1  0
 14 15  1  0
 15 16  2  3
 15 17  1  0
 17 18  1  0
 18 19  1  0
 19 20  1  0
 20 21  1  0
 21 22  1  0
 22 23  1  0
 22 24  1  0
 24 25  1  0
 24 26  1  0
 26 27  1  0
 27 28  1  0
 28 29  1  0
 29 30  1  0
 30 31  1  0
 31 32  1  0
 32 33  1  0
 32 34  1  0
 34 35  1  0
 35 36  1  0
 36 37  1  0
 37 38  1  0
 37 39  1  0
 34 40  1  0
 21 41  1  0
 41 42  1  0
 42 43  1  0
  6 44  1  0
 44  4  1  0
 43 17  1  0
 42 19  1  0
 42 20  1  0
 30 27  1  0
 40 28  1  0
  1 45  1  0
  1 46  1  0
  2 47  1  0
  3 48  1  0
  3 49  1  0
  4 50  1  0
  5 51  1  0
  5 52  1  0
  6 53  1  0
  8 54  1  0
  8 55  1  0
  8 56  1  0
  9 57  1  0
  9 58  1  0
 10 59  1  0
 11 60  1  0
 11 61  1  0
 12 62  1  0
 12 63  1  0
 12 64  1  0
 14 65  1  0
 14 66  1  0
 16 67  1  0
 16 68  1  0
 17 69  1  0
 18 70  1  0
 18 71  1  0
 19 72  1  0
 20 73  1  0
 21 74  1  0
 22 75  1  0
 23 76  1  0
 23 77  1  0
 23 78  1  0
 24 79  1  0
 25 80  1  0
 25 81  1  0
 25 82  1  0
 26 83  1  0
 26 84  1  0
 27 85  1  0
 28 86  1  0
 29 87  1  0
 29 88  1  0
 30 89  1  0
 31 90  1  0
 32 91  1  0
 33 92  1  0
 33 93  1  0
 33 94  1  0
 34 95  1  0
 36 96  1  0
 36 97  1  0
 37 98  1  0
 38 99  1  0
 38100  1  0
 38101  1  0
 39102  1  0
 40103  1  0
 40104  1  0
 41105  1  0
 41106  1  0
 44107  1  0
M  END
