
     RDKit          2D

 21 21  0  0  0  0  0  0  0  0999 V2000
   -7.8156   34.4676   10.3411 N   0  0  0  0  0  0  0  0  0  0  0  0
   -7.2404   33.1873    9.8122 C   0  0  0  0  0  0  0  0  0  0  0  0
   -6.6652   31.9068    9.2832 C   0  0  0  0  0  0  0  0  0  0  0  0
   -5.8740   30.9661    8.4237 C   0  0  0  0  0  0  0  0  0  0  0  0
   -5.9046   29.4921    8.6999 N   0  0  0  0  0  0  0  0  0  0  0  0
   -6.7264   28.9588    9.8357 C   0  0  0  0  0  0  0  0  0  0  0  0
   -7.5177   29.8995   10.6953 N   0  0  0  0  0  0  0  0  0  0  0  0
   -7.4871   31.3736   10.4191 C   0  0  0  0  0  0  0  0  0  0  0  0
   -8.4095   31.3492   11.6016 N   0  0  0  0  0  0  0  0  0  0  0  0
   -7.4683   35.7723    9.6875 H   0  0  0  0  0  0  0  0  0  0  0  0
   -8.7381   34.4434   11.5237 H   0  0  0  0  0  0  0  0  0  0  0  0
   -6.5075   33.9544    8.7519 H   0  0  0  0  0  0  0  0  0  0  0  0
   -7.6643   32.8654   10.4057 H   0  0  0  0  0  0  0  0  0  0  0  0
   -6.0431   32.8848    8.3311 H   0  0  0  0  0  0  0  0  0  0  0  0
   -5.5266   32.2707    7.7700 H   0  0  0  0  0  0  0  0  0  0  0  0
   -4.9621   30.4785    7.3371 H   0  0  0  0  0  0  0  0  0  0  0  0
   -5.1133   28.5513    7.8402 H   0  0  0  0  0  0  0  0  0  0  0  0
   -6.7570   27.4848   10.1120 H   0  0  0  0  0  0  0  0  0  0  0  0
   -7.6973   32.1283   10.5663 H   0  0  0  0  0  0  0  0  0  0  0  0
   -8.9847   32.6297   12.1305 H   0  0  0  0  0  0  0  0  0  0  0  0
   -8.7569   30.0446   12.2553 H   0  0  0  0  0  0  0  0  0  0  0  0
  1  2  1  0
  2  3  1  0
  3  4  1  0
  4  5  1  0
  5  6  1  0
  6  7  2  0
  7  8  1  0
  8  9  1  0
  8  3  1  0
  1 10  1  0
  1 11  1  0
  2 12  1  0
  2 13  1  0
  3 14  1  0
  4 15  1  0
  4 16  1  0
  5 17  1  0
  6 18  1  0
  8 19  1  0
  9 20  1  0
  9 21  1  0
M  END
