
     RDKit          2D

 21 22  0  0  0  0  0  0  0  0999 V2000
    4.2510   25.6648    2.6529 C   0  0  0  0  0  0  0  0  0  0  0  0
    3.4163   25.6647    3.8991 C   0  0  0  0  0  0  0  0  0  0  0  0
    2.3901   25.7687    2.8099 C   0  0  0  0  0  0  0  0  0  0  0  0
    0.8977   25.8520    2.9360 O   0  0  0  0  0  0  0  0  0  0  0  0
    0.0629   25.8519    4.1823 C   0  0  0  0  0  0  0  0  0  0  0  0
   -1.1144   25.9583    3.2587 O   0  0  0  0  0  0  0  0  0  0  0  0
   -0.9478   25.8677    5.2905 C   0  0  0  0  0  0  0  0  0  0  0  0
    0.5143   25.7685    5.6103 C   0  0  0  0  0  0  0  0  0  0  0  0
    1.9120   25.6645    6.1447 O   0  0  0  0  0  0  0  0  0  0  0  0
    3.2035   25.6183    5.3832 Sb  0  0  0  0  0  3  0  0  0  0  0  0
    5.0858   25.6649    1.4066 H   0  0  0  0  0  0  0  0  0  0  0  0
    3.6491   25.7155    2.1327 H   0  0  0  0  0  0  0  0  0  0  0  0
    5.4948   25.5686    3.4859 H   0  0  0  0  0  0  0  0  0  0  0  0
    4.8139   25.5608    4.4336 H   0  0  0  0  0  0  0  0  0  0  0  0
    1.9387   25.8521    1.3819 H   0  0  0  0  0  0  0  0  0  0  0  0
    3.0222   25.7506    2.3246 H   0  0  0  0  0  0  0  0  0  0  0  0
   -2.5618   26.0286    3.6458 H   0  0  0  0  0  0  0  0  0  0  0  0
   -2.2999   25.9732    4.6495 H   0  0  0  0  0  0  0  0  0  0  0  0
   -1.5197   25.8465    6.6770 H   0  0  0  0  0  0  0  0  0  0  0  0
    0.0830   25.7370    7.0466 H   0  0  0  0  0  0  0  0  0  0  0  0
    4.4466   25.5117    6.2159 H   0  0  0  0  0  0  0  0  0  0  0  0
  1  2  1  0
  2  3  1  0
  3  4  1  0
  4  5  1  0
  5  6  1  0
  5  7  1  0
  7  8  1  0
  8  9  1  0
  9 10  1  0
 10  2  1  0
  8  5  1  0
  1 11  1  0
  1 12  1  0
  1 13  1  0
  2 14  1  0
  3 15  1  0
  3 16  1  0
  6 17  1  0
  7 18  1  0
  7 19  1  0
  8 20  1  0
 10 21  1  0
M  END
