
     RDKit          2D

 23 24  0  0  0  0  0  0  0  0999 V2000
   16.7467  -21.1184  -10.7206 O   0  0  0  0  0  0  0  0  0  0  0  0
   16.3449  -21.8147   -9.4541 C   0  0  0  0  0  0  0  0  0  0  0  0
   15.8155  -20.6489   -8.6726 O   0  0  0  0  0  0  0  0  0  0  0  0
   16.7347  -23.2222   -9.7958 C   0  0  0  0  0  0  0  0  0  0  0  0
   16.1269  -22.9158   -8.4591 C   0  0  0  0  0  0  0  0  0  0  0  0
   15.5219  -22.1324   -7.3321 C   0  0  0  0  0  0  0  0  0  0  0  0
   14.9168  -21.3491   -6.2050 N   0  0  0  0  0  0  0  0  0  0  0  0
   14.5150  -22.0453   -4.9387 C   0  0  0  0  0  0  0  0  0  0  0  0
   13.9778  -22.2528   -3.5535 C   0  0  0  0  0  0  0  0  0  0  0  0
   13.9856  -20.8796   -4.1571 C   0  0  0  0  0  0  0  0  0  0  0  0
   16.5434  -19.6388  -10.8599 H   0  0  0  0  0  0  0  0  0  0  0  0
   15.5300  -20.7590   -7.9365 H   0  0  0  0  0  0  0  0  0  0  0  0
   16.9380  -24.7018   -9.6565 H   0  0  0  0  0  0  0  0  0  0  0  0
   17.2718  -23.0148  -11.1809 H   0  0  0  0  0  0  0  0  0  0  0  0
   16.1191  -24.2889   -7.8556 H   0  0  0  0  0  0  0  0  0  0  0  0
   15.4066  -23.3887   -6.5207 H   0  0  0  0  0  0  0  0  0  0  0  0
   15.5034  -21.3839   -7.6055 H   0  0  0  0  0  0  0  0  0  0  0  0
   14.7135  -19.8694   -6.3443 H   0  0  0  0  0  0  0  0  0  0  0  0
   14.9048  -23.4530   -5.2803 H   0  0  0  0  0  0  0  0  0  0  0  0
   14.1811  -23.7324   -3.4142 H   0  0  0  0  0  0  0  0  0  0  0  0
   13.3700  -21.9464   -2.2169 H   0  0  0  0  0  0  0  0  0  0  0  0
   13.3806  -20.0962   -3.0300 H   0  0  0  0  0  0  0  0  0  0  0  0
   14.2036  -19.7784   -5.1521 H   0  0  0  0  0  0  0  0  0  0  0  0
  1  2  1  0
  2  3  1  0
  2  4  1  0
  4  5  1  0
  5  6  1  0
  6  7  1  0
  7  8  1  0
  8  9  1  0
  9 10  1  0
  5  2  1  0
 10  8  1  0
  1 11  1  0
  3 12  1  0
  4 13  1  0
  4 14  1  0
  5 15  1  0
  6 16  1  0
  6 17  1  0
  7 18  1  0
  8 19  1  0
  9 20  1  0
  9 21  1  0
 10 22  1  0
 10 23  1  0
M  END
