
     RDKit          2D

 45 47  0  0  0  0  0  0  0  0999 V2000
    0.4842   18.0898   -0.0085 C   0  0  0  0  0  0  0  0  0  0  0  0
   -0.2392   19.3415    0.3920 C   0  0  0  0  0  0  0  0  0  0  0  0
   -0.9625   20.5930    0.7924 C   0  0  0  0  0  0  0  0  0  0  0  0
   -1.6859   21.8446    1.1928 C   0  0  0  0  0  0  0  0  0  0  0  0
   -2.4092   23.0961    1.5932 C   0  0  0  0  0  0  0  0  0  0  0  0
   -3.1325   24.3478    1.9937 O   0  0  0  0  0  0  0  0  0  0  0  0
   -2.5782   25.2188    3.0818 N   0  0  0  0  0  0  0  0  0  0  0  0
   -3.3015   26.4703    3.4822 C   0  0  0  0  0  0  0  0  0  0  0  0
   -2.0198   20.3102   -0.2333 C   0  0  0  0  0  0  0  0  0  0  0  0
   -3.0771   20.0272   -1.2591 C   0  0  0  0  0  0  0  0  0  0  0  0
   -3.4143   21.2983   -0.5376 C   0  0  0  0  0  0  0  0  0  0  0  0
   -4.6524   21.4434   -1.3718 C   0  0  0  0  0  0  0  0  0  0  0  0
   -4.3153   20.1723   -2.0933 C   0  0  0  0  0  0  0  0  0  0  0  0
   -4.8236   19.2690   -3.1774 O   0  0  0  0  0  0  0  0  0  0  0  0
   -3.7394   17.9412   -3.3718 C   0  0  0  0  0  0  0  0  0  0  0  0
   -3.1023   18.7374   -2.2717 N   0  0  0  0  0  0  0  0  0  0  0  0
   -1.9883   17.7360   -2.1920 C   0  0  0  0  0  0  0  0  0  0  0  0
   -2.6255   16.9397   -3.2921 C   0  0  0  0  0  0  0  0  0  0  0  0
   -2.0416   18.9430   -1.3030 C   0  0  0  0  0  0  0  0  0  0  0  0
    1.2075   16.8383   -0.4090 H   0  0  0  0  0  0  0  0  0  0  0  0
    1.5425   18.3737    1.0158 H   0  0  0  0  0  0  0  0  0  0  0  0
   -0.3677   17.5115   -1.0993 H   0  0  0  0  0  0  0  0  0  0  0  0
   -0.8068   19.0855   -0.2380 H   0  0  0  0  0  0  0  0  0  0  0  0
    0.8182   19.6244    1.4176 H   0  0  0  0  0  0  0  0  0  0  0  0
    0.0948   20.8759    1.8181 H   0  0  0  0  0  0  0  0  0  0  0  0
   -0.6281   22.1278    2.2181 H   0  0  0  0  0  0  0  0  0  0  0  0
   -2.2479   21.6940    0.6480 H   0  0  0  0  0  0  0  0  0  0  0  0
   -1.3519   23.3790    2.6190 H   0  0  0  0  0  0  0  0  0  0  0  0
   -3.5467   22.9680    0.6240 H   0  0  0  0  0  0  0  0  0  0  0  0
   -1.3005   24.8383    3.7695 H   0  0  0  0  0  0  0  0  0  0  0  0
   -4.0249   27.7220    3.8827 H   0  0  0  0  0  0  0  0  0  0  0  0
   -4.3553   26.1911    2.4519 H   0  0  0  0  0  0  0  0  0  0  0  0
   -2.2478   26.7497    4.5125 H   0  0  0  0  0  0  0  0  0  0  0  0
   -1.6694   19.5588   -0.5452 H   0  0  0  0  0  0  0  0  0  0  0  0
   -2.4066   20.9730   -0.0175 H   0  0  0  0  0  0  0  0  0  0  0  0
   -3.8998   22.5777    0.0769 H   0  0  0  0  0  0  0  0  0  0  0  0
   -2.1761   21.1532    0.2967 H   0  0  0  0  0  0  0  0  0  0  0  0
   -5.8906   21.5885   -2.2060 H   0  0  0  0  0  0  0  0  0  0  0  0
   -4.9896   22.7146   -0.6503 H   0  0  0  0  0  0  0  0  0  0  0  0
   -5.5953   20.7291   -2.6423 H   0  0  0  0  0  0  0  0  0  0  0  0
   -0.7054   17.2876   -1.5572 H   0  0  0  0  0  0  0  0  0  0  0  0
   -3.2626   16.1435   -4.3921 H   0  0  0  0  0  0  0  0  0  0  0  0
   -1.5115   15.9383   -3.2123 H   0  0  0  0  0  0  0  0  0  0  0  0
   -0.7797   18.2607   -0.8644 H   0  0  0  0  0  0  0  0  0  0  0  0
   -1.2631   19.6002   -0.2020 H   0  0  0  0  0  0  0  0  0  0  0  0
  1  2  1  0
  2  3  1  0
  3  4  1  0
  4  5  1  0
  5  6  1  0
  6  7  1  0
  7  8  1  0
  3  9  1  0
  9 10  1  0
 10 11  1  0
 11 12  1  0
 12 13  1  0
 13 14  1  0
 14 15  1  0
 15 16  2  0
 16 17  1  0
 17 18  1  0
 17 19  1  0
 13 10  1  0
 18 15  1  0
 19 10  1  0
  1 20  1  0
  1 21  1  0
  1 22  1  0
  2 23  1  0
  2 24  1  0
  3 25  1  0
  4 26  1  0
  4 27  1  0
  5 28  1  0
  5 29  1  0
  7 30  1  0
  8 31  1  0
  8 32  1  0
  8 33  1  0
  9 34  1  0
  9 35  1  0
 11 36  1  0
 11 37  1  0
 12 38  1  0
 12 39  1  0
 13 40  1  0
 17 41  1  0
 18 42  1  0
 18 43  1  0
 19 44  1  0
 19 45  1  0
M  END
