
     RDKit          2D

 61 68  0  0  0  0  0  0  0  0999 V2000
   -7.6137   31.0923    4.5191 C   0  0  0  0  0  0  0  0  0  0  0  0
   -6.6199   29.9720    4.4342 C   0  0  0  0  0  0  0  0  0  0  0  0
   -5.6260   28.8517    4.3494 C   0  0  0  0  0  0  0  0  0  0  0  0
   -4.6323   27.7313    4.2644 C   0  0  0  0  0  0  0  0  0  0  0  0
   -4.0413   28.7011    5.2444 N   0  0  0  0  0  2  0  0  0  0  0  0
   -2.9359   29.0909    6.1804 C   0  0  0  0  0  0  0  0  0  0  0  0
   -1.6122   28.7964    6.8216 N   0  0  0  0  0  0  0  0  0  0  0  0
   -0.4250   27.8964    6.9963 C   0  0  0  0  0  0  0  0  0  0  0  0
    0.3076   26.6321    6.6577 C   0  0  0  0  0  0  0  0  0  0  0  0
    0.3894   25.3423    5.8964 C   0  0  0  0  0  0  0  0  0  0  0  0
    1.3030   24.1648    5.7254 C   0  0  0  0  0  0  0  0  0  0  0  0
    2.4083   24.5547    6.6614 C   0  0  0  0  0  0  0  0  0  0  0  0
    2.4901   23.2648    5.9001 C   0  0  0  0  0  0  0  0  0  0  0  0
    3.5955   23.6547    6.8361 C   0  0  0  0  0  0  0  0  0  0  0  0
    4.3837   24.4535    7.8315 C   0  0  0  0  0  0  0  0  0  0  0  0
    5.4891   24.8433    8.7675 C   0  0  0  0  0  0  0  0  0  0  0  0
    5.5709   23.5535    8.0062 C   0  0  0  0  0  0  0  0  0  0  0  0
    5.6528   22.2636    7.2449 N   0  0  0  0  0  0  0  0  0  0  0  0
    6.8399   21.3636    7.4196 C   0  0  0  0  0  0  0  0  0  0  0  0
    7.9453   21.7535    8.3556 C   0  0  0  0  0  0  0  0  0  0  0  0
    6.7581   22.6535    8.1809 C   0  0  0  0  0  0  0  0  0  0  0  0
   -0.2015   24.3725    4.9165 C   0  0  0  0  0  0  0  0  0  0  0  0
   -1.3069   23.9826    3.9805 C   0  0  0  0  0  0  0  0  0  0  0  0
   -2.6305   24.2772    3.3392 C   0  0  0  0  0  0  0  0  0  0  0  0
   -3.8178   25.1772    3.1645 C   0  0  0  0  0  0  0  0  0  0  0  0
   -4.5505   26.4414    3.5032 C   0  0  0  0  0  0  0  0  0  0  0  0
   -5.7377   27.3414    3.3285 N   0  0  0  0  0  2  0  0  0  0  0  0
   -8.6075   32.2126    4.6039 H   0  0  0  0  0  0  0  0  0  0  0  0
   -6.6108   31.9258    5.2603 H   0  0  0  0  0  0  0  0  0  0  0  0
   -8.6166   30.2588    3.7778 H   0  0  0  0  0  0  0  0  0  0  0  0
   -7.4973   29.2689    3.4413 H   0  0  0  0  0  0  0  0  0  0  0  0
   -5.7424   30.6751    5.4271 H   0  0  0  0  0  0  0  0  0  0  0  0
   -4.7482   29.5552    5.3415 H   0  0  0  0  0  0  0  0  0  0  0  0
   -6.5039   28.1481    3.3572 H   0  0  0  0  0  0  0  0  0  0  0  0
   -2.5601   30.2023    7.1151 H   0  0  0  0  0  0  0  0  0  0  0  0
   -4.0025   30.1457    6.1785 H   0  0  0  0  0  0  0  0  0  0  0  0
   -1.3487   29.9661    7.7230 H   0  0  0  0  0  0  0  0  0  0  0  0
    0.5809   27.9738    7.6734 H   0  0  0  0  0  0  0  0  0  0  0  0
   -0.2757   29.1155    7.8574 H   0  0  0  0  0  0  0  0  0  0  0  0
    1.6326   26.2045    7.2159 H   0  0  0  0  0  0  0  0  0  0  0  0
    1.0466   27.1702    7.4581 H   0  0  0  0  0  0  0  0  0  0  0  0
    1.6608   25.3454    6.6925 H   0  0  0  0  0  0  0  0  0  0  0  0
    0.9563   23.6752    5.2005 H   0  0  0  0  0  0  0  0  0  0  0  0
    2.4885   25.7990    7.4952 H   0  0  0  0  0  0  0  0  0  0  0  0
    2.5719   21.9750    5.1388 H   0  0  0  0  0  0  0  0  0  0  0  0
    4.5090   22.4773    6.6651 H   0  0  0  0  0  0  0  0  0  0  0  0
    3.4702   25.6309    8.0025 H   0  0  0  0  0  0  0  0  0  0  0  0
    4.9595   26.1561    9.2635 H   0  0  0  0  0  0  0  0  0  0  0  0
    6.7785   24.7773    9.5312 H   0  0  0  0  0  0  0  0  0  0  0  0
    6.9218   20.0738    6.6583 H   0  0  0  0  0  0  0  0  0  0  0  0
    8.8588   20.5761    8.1846 H   0  0  0  0  0  0  0  0  0  0  0  0
    8.7335   22.5523    9.3510 H   0  0  0  0  0  0  0  0  0  0  0  0
    0.0248   23.4092    4.4511 H   0  0  0  0  0  0  0  0  0  0  0  0
    0.7042   23.7938    5.1177 H   0  0  0  0  0  0  0  0  0  0  0  0
   -1.5249   22.7920    3.0945 H   0  0  0  0  0  0  0  0  0  0  0  0
   -0.3444   22.8384    3.8610 H   0  0  0  0  0  0  0  0  0  0  0  0
   -3.4734   23.5346    2.3451 H   0  0  0  0  0  0  0  0  0  0  0  0
   -2.2532   22.9541    2.7416 H   0  0  0  0  0  0  0  0  0  0  0  0
   -5.0596   25.0817    2.3287 H   0  0  0  0  0  0  0  0  0  0  0  0
   -4.1266   24.0297    2.2490 H   0  0  0  0  0  0  0  0  0  0  0  0
   -5.5431   25.8794    2.5291 H   0  0  0  0  0  0  0  0  0  0  0  0
  1  2  1  0
  2  3  1  0
  3  4  1  0
  4  5  1  0
  5  6  1  0
  6  7  1  0
  7  8  1  0
  8  9  1  0
  9 10  1  0
 10 11  1  0
 11 12  1  0
 12 13  1  0
 13 14  1  0
 14 15  1  0
 15 16  1  0
 16 17  1  0
 17 18  1  0
 18 19  1  0
 19 20  1  0
 20 21  1  0
 10 22  1  0
 22 23  1  0
 23 24  1  0
 24 25  1  0
 25 26  1  0
 26 27  1  0
 26  4  1  0
 27  4  1  0
 13 11  1  0
 17 15  1  0
 21 18  1  0
 14 12  1  0
 21 17  1  0
 21 19  1  0
  1 28  1  0
  1 29  1  0
  1 30  1  0
  2 31  1  0
  2 32  1  0
  3 33  1  0
  3 34  1  0
  6 35  1  0
  6 36  1  0
  7 37  1  0
  8 38  1  0
  8 39  1  0
  9 40  1  0
  9 41  1  0
 10 42  1  0
 11 43  1  0
 12 44  1  0
 13 45  1  0
 14 46  1  0
 15 47  1  0
 16 48  1  0
 16 49  1  0
 19 50  1  0
 20 51  1  0
 20 52  1  0
 22 53  1  0
 22 54  1  0
 23 55  1  0
 23 56  1  0
 24 57  1  0
 24 58  1  0
 25 59  1  0
 25 60  1  0
 26 61  1  0
M  RAD  2   5   2  27   2
M  END
