
     RDKit          2D

 45 50  0  0  0  0  0  0  0  0999 V2000
   -0.3058   26.1836    4.8508 C   0  0  0  0  0  0  0  0  0  0  0  0
   -0.2733   27.4037    3.9787 C   0  0  0  0  0  0  0  0  0  0  0  0
   -1.2989   27.2868    5.0670 C   0  0  0  0  0  0  0  0  0  0  0  0
   -2.0730   26.7183    6.2192 C   0  0  0  0  0  0  0  0  0  0  0  0
   -2.8470   26.1497    7.3714 C   0  0  0  0  0  0  0  0  0  0  0  0
   -3.6212   25.5813    8.5237 C   0  0  0  0  0  0  0  0  0  0  0  0
   -4.6468   25.4645    9.6120 C   0  0  0  0  0  0  0  0  0  0  0  0
   -4.6143   26.6845    8.7398 C   0  0  0  0  0  0  0  0  0  0  0  0
   -5.7565   27.4570    9.3302 C   0  0  0  0  0  0  0  0  0  0  0  0
   -6.8986   28.2298    9.9204 C   0  0  0  0  0  0  0  0  0  0  0  0
   -7.1321   27.1278   10.9110 C   0  0  0  0  0  0  0  0  0  0  0  0
   -8.2743   27.9005   11.5013 O   0  0  0  0  0  0  0  0  0  0  0  0
   -8.0408   29.0024   10.5107 C   0  0  0  0  0  0  0  0  0  0  0  0
   -7.3525   28.1211   10.4421 C   0  0  0  0  0  0  0  0  0  0  0  0
   -5.7565   27.4570    9.3302 N   0  0  0  0  0  0  0  0  0  0  0  0
   -4.9832   28.0251    8.1771 C   0  0  0  0  0  0  0  0  0  0  0  0
   -4.1094   26.8060    8.1627 C   0  0  0  0  0  0  0  0  0  0  0  0
   -3.3361   27.3739    7.0096 C   0  0  0  0  0  0  0  0  0  0  0  0
   -4.2099   28.5930    7.0240 N   0  0  0  0  0  0  0  0  0  0  0  0
   -4.9832   28.0251    8.1771 N   0  0  0  0  0  0  0  0  0  0  0  0
    0.8364   25.4110    4.2605 H   0  0  0  0  0  0  0  0  0  0  0  0
   -0.5996   25.1230    5.8700 H   0  0  0  0  0  0  0  0  0  0  0  0
   -0.6414   28.7448    3.4168 H   0  0  0  0  0  0  0  0  0  0  0  0
    0.8802   27.0546    3.0856 H   0  0  0  0  0  0  0  0  0  0  0  0
   -2.0232   28.5874    4.8831 H   0  0  0  0  0  0  0  0  0  0  0  0
   -2.8439   27.9990    6.0952 H   0  0  0  0  0  0  0  0  0  0  0  0
   -1.3021   25.4376    6.3433 H   0  0  0  0  0  0  0  0  0  0  0  0
   -3.3845   27.4922    6.9728 H   0  0  0  0  0  0  0  0  0  0  0  0
   -1.9742   24.9301    7.3561 H   0  0  0  0  0  0  0  0  0  0  0  0
   -2.8969   24.2806    8.7076 H   0  0  0  0  0  0  0  0  0  0  0  0
   -4.2787   24.1233   10.1739 H   0  0  0  0  0  0  0  0  0  0  0  0
   -5.7247   25.4884   10.6547 H   0  0  0  0  0  0  0  0  0  0  0  0
   -4.3204   27.7451    7.7206 H   0  0  0  0  0  0  0  0  0  0  0  0
   -5.9908   26.3545   10.3197 H   0  0  0  0  0  0  0  0  0  0  0  0
   -5.6630   28.6456    8.4198 H   0  0  0  0  0  0  0  0  0  0  0  0
   -6.8062   29.4176    9.0091 H   0  0  0  0  0  0  0  0  0  0  0  0
   -6.4895   25.8023   11.1941 H   0  0  0  0  0  0  0  0  0  0  0  0
   -8.6834   30.3279   10.2276 H   0  0  0  0  0  0  0  0  0  0  0  0
   -6.5277   29.2293    8.8652 H   0  0  0  0  0  0  0  0  0  0  0  0
   -5.6661   26.1849   10.1198 H   0  0  0  0  0  0  0  0  0  0  0  0
   -5.7563   29.3043    8.0508 H   0  0  0  0  0  0  0  0  0  0  0  0
   -3.7585   25.4685    8.7441 H   0  0  0  0  0  0  0  0  0  0  0  0
   -2.6751   28.0862    5.8669 H   0  0  0  0  0  0  0  0  0  0  0  0
   -2.3011   26.3285    6.7166 H   0  0  0  0  0  0  0  0  0  0  0  0
   -6.1479   28.4855    9.0026 H   0  0  0  0  0  0  0  0  0  0  0  0
  1  2  1  0
  2  3  1  0
  3  4  1  0
  4  5  1  0
  5  6  1  0
  6  7  1  0
  7  8  1  0
  8  9  1  0
  9 10  1  0
 10 11  1  0
 11 12  1  0
 12 13  1  0
 13 14  1  0
 14 15  1  0
 15 16  1  0
 16 17  1  0
 17 18  1  0
 18 19  1  0
 19 20  1  0
  3  1  1  0
  8  6  1  0
 13 10  1  0
 19 16  1  0
 14 11  1  0
 20 17  1  0
  1 21  1  0
  1 22  1  0
  2 23  1  0
  2 24  1  0
  3 25  1  0
  4 26  1  0
  4 27  1  0
  5 28  1  0
  5 29  1  0
  6 30  1  0
  7 31  1  0
  7 32  1  0
  8 33  1  0
  9 34  1  0
  9 35  1  0
 10 36  1  0
 11 37  1  0
 13 38  1  0
 14 39  1  0
 15 40  1  0
 16 41  1  0
 17 42  1  0
 18 43  1  0
 18 44  1  0
 20 45  1  0
M  END
