
     RDKit          2D

 93 98  0  0  0  0  0  0  0  0999 V2000
   -2.5807   25.3350    1.5429 C   0  0  0  0  0  0  0  0  0  0  0  0
   -1.8415   25.7537    2.7791 C   0  0  0  0  0  0  0  0  0  0  0  0
   -2.5997   26.0869    4.0297 C   0  0  0  0  0  0  0  0  0  0  0  0
   -3.8911   25.7954    3.3244 C   0  0  0  0  0  0  0  0  0  0  0  0
   -5.1825   25.5038    2.6191 C   0  0  0  0  0  0  0  0  0  0  0  0
   -3.3581   26.4202    5.2803 C   0  0  0  0  0  0  0  0  0  0  0  0
   -4.1162   26.7534    6.5308 N   0  0  0  0  0  0  0  0  0  0  0  0
   -5.6138   26.6680    6.5453 C   0  0  0  0  0  0  0  0  0  0  0  0
   -7.1112   26.5825    6.5597 C   0  0  0  0  0  0  0  0  0  0  0  0
   -7.8505   26.1638    5.3235 O   0  0  0  0  0  0  0  0  0  0  0  0
   -5.6247   27.1013    7.9812 C   0  0  0  0  0  0  0  0  0  0  0  0
   -5.6356   27.5347    9.4173 C   0  0  0  0  0  0  0  0  0  0  0  0
   -5.6466   27.9680   10.8533 C   0  0  0  0  0  0  0  0  0  0  0  0
   -0.3440   25.8391    2.7647 C   0  0  0  0  0  0  0  0  0  0  0  0
   -0.6149   26.2518    4.1811 C   0  0  0  0  0  0  0  0  0  0  0  0
   -2.0183   26.0231    3.7037 C   0  0  0  0  0  0  0  0  0  0  0  0
   -1.3732   26.5851    5.4317 C   0  0  0  0  0  0  0  0  0  0  0  0
    0.5252   26.5964    5.0930 C   0  0  0  0  0  0  0  0  0  0  0  0
    1.6653   26.9409    6.0049 C   0  0  0  0  0  0  0  0  0  0  0  0
    1.9362   26.5282    4.5884 C   0  0  0  0  0  0  0  0  0  0  0  0
    0.7961   26.1837    3.6765 C   0  0  0  0  0  0  0  0  0  0  0  0
    2.2070   26.1155    3.1719 C   0  0  0  0  0  0  0  0  0  0  0  0
    3.6798   26.2750    3.4071 C   0  0  0  0  0  0  0  0  0  0  0  0
    4.6508   25.9974    2.2980 C   0  0  0  0  0  0  0  0  0  0  0  0
    4.1490   25.5602    0.9537 C   0  0  0  0  0  0  0  0  0  0  0  0
    5.3820   25.3812    0.1185 C   0  0  0  0  0  0  0  0  0  0  0  0
    4.5320   24.9765   -1.0494 C   0  0  0  0  0  0  0  0  0  0  0  0
    3.2990   25.1555   -0.2140 C   0  0  0  0  0  0  0  0  0  0  0  0
    2.6562   25.5129    1.0932 C   0  0  0  0  0  0  0  0  0  0  0  0
    2.5148   25.9380    2.5248 C   0  0  0  0  0  0  0  0  0  0  0  0
    2.3733   26.3630    3.9563 C   0  0  0  0  0  0  0  0  0  0  0  0
    2.2319   26.7881    5.3879 C   0  0  0  0  0  0  0  0  0  0  0  0
    3.5634   27.4750    5.3154 C   0  0  0  0  0  0  0  0  0  0  0  0
    2.0904   27.2131    6.8195 C   0  0  0  0  0  0  0  0  0  0  0  0
    1.9490   27.6382    8.2509 Br  0  0  0  0  0  0  0  0  0  0  0  0
    2.4779   25.7028    1.7555 C   0  0  0  0  0  0  0  0  0  0  0  0
    1.0669   25.7710    2.2601 C   0  0  0  0  0  0  0  0  0  0  0  0
    1.5688   26.2082    3.6044 C   0  0  0  0  0  0  0  0  0  0  0  0
    2.0706   26.6454    4.9486 O   0  0  0  0  0  0  0  0  0  0  0  0
   -4.0657   25.1972    1.3821 H   0  0  0  0  0  0  0  0  0  0  0  0
   -1.8224   25.0017    0.2923 H   0  0  0  0  0  0  0  0  0  0  0  0
   -1.5302   26.4505    5.0166 H   0  0  0  0  0  0  0  0  0  0  0  0
   -4.8053   26.1894    4.4465 H   0  0  0  0  0  0  0  0  0  0  0  0
   -3.4638   25.3049    1.9728 H   0  0  0  0  0  0  0  0  0  0  0  0
   -5.9407   25.8369    3.8698 H   0  0  0  0  0  0  0  0  0  0  0  0
   -4.5873   25.1376    1.2919 H   0  0  0  0  0  0  0  0  0  0  0  0
   -6.4737   25.2122    1.9139 H   0  0  0  0  0  0  0  0  0  0  0  0
   -2.1687   26.7500    6.1328 H   0  0  0  0  0  0  0  0  0  0  0  0
   -4.7321   26.1717    4.7327 H   0  0  0  0  0  0  0  0  0  0  0  0
   -3.2237   27.1516    7.6689 H   0  0  0  0  0  0  0  0  0  0  0  0
   -5.6028   26.2346    5.1093 H   0  0  0  0  0  0  0  0  0  0  0  0
   -8.0212   26.8778    7.7149 H   0  0  0  0  0  0  0  0  0  0  0  0
   -4.1398   27.2410    8.1414 H   0  0  0  0  0  0  0  0  0  0  0  0
   -7.1123   27.0673    8.1712 H   0  0  0  0  0  0  0  0  0  0  0  0
   -4.1382   27.6216    9.4024 H   0  0  0  0  0  0  0  0  0  0  0  0
   -7.1331   27.4478    9.4321 H   0  0  0  0  0  0  0  0  0  0  0  0
   -4.1490   28.0524   10.8392 H   0  0  0  0  0  0  0  0  0  0  0  0
   -7.1441   27.8837   10.8673 H   0  0  0  0  0  0  0  0  0  0  0  0
   -5.6575   28.4014   12.2893 H   0  0  0  0  0  0  0  0  0  0  0  0
   -0.5932   25.3967    1.3533 H   0  0  0  0  0  0  0  0  0  0  0  0
   -2.7079   26.3711    4.9894 H   0  0  0  0  0  0  0  0  0  0  0  0
   -1.8509   25.6002    2.2742 H   0  0  0  0  0  0  0  0  0  0  0  0
   -3.2536   25.7094    2.9126 H   0  0  0  0  0  0  0  0  0  0  0  0
   -2.8505   26.4329    5.2215 H   0  0  0  0  0  0  0  0  0  0  0  0
   -0.0817   26.8762    6.1372 H   0  0  0  0  0  0  0  0  0  0  0  0
   -1.9683   26.9514    6.7590 H   0  0  0  0  0  0  0  0  0  0  0  0
    0.7553   27.2362    7.1602 H   0  0  0  0  0  0  0  0  0  0  0  0
    3.0688   27.1697    6.4824 H   0  0  0  0  0  0  0  0  0  0  0  0
    1.0411   25.7682    2.2563 H   0  0  0  0  0  0  0  0  0  0  0  0
   -0.4392   25.8700    2.8856 H   0  0  0  0  0  0  0  0  0  0  0  0
    4.3500   26.7007    4.6799 H   0  0  0  0  0  0  0  0  0  0  0  0
    6.1236   26.1569    2.5331 H   0  0  0  0  0  0  0  0  0  0  0  0
    6.6150   25.2021   -0.7168 H   0  0  0  0  0  0  0  0  0  0  0  0
    6.2319   25.7858    1.2863 H   0  0  0  0  0  0  0  0  0  0  0  0
    3.6821   24.5718   -2.2172 H   0  0  0  0  0  0  0  0  0  0  0  0
    5.7650   24.7975   -1.8846 H   0  0  0  0  0  0  0  0  0  0  0  0
    2.1589   24.8110   -1.1259 H   0  0  0  0  0  0  0  0  0  0  0  0
    1.2127   25.3180    0.7356 H   0  0  0  0  0  0  0  0  0  0  0  0
    3.9270   26.1603    2.9786 H   0  0  0  0  0  0  0  0  0  0  0  0
    1.1738   25.6706    1.9083 H   0  0  0  0  0  0  0  0  0  0  0  0
    0.8763   26.2934    4.0207 H   0  0  0  0  0  0  0  0  0  0  0  0
    3.7857   26.5846    4.4104 H   0  0  0  0  0  0  0  0  0  0  0  0
    0.9057   26.2244    5.8046 H   0  0  0  0  0  0  0  0  0  0  0  0
    3.7478   28.0545    6.6867 H   0  0  0  0  0  0  0  0  0  0  0  0
    3.3789   26.8956    3.9443 H   0  0  0  0  0  0  0  0  0  0  0  0
    4.8948   28.1620    5.2431 H   0  0  0  0  0  0  0  0  0  0  0  0
    0.5936   27.1412    6.8845 H   0  0  0  0  0  0  0  0  0  0  0  0
    3.5026   27.4369    7.2729 H   0  0  0  0  0  0  0  0  0  0  0  0
    3.9753   25.7882    1.7411 H   0  0  0  0  0  0  0  0  0  0  0  0
    2.2287   25.2604    0.3441 H   0  0  0  0  0  0  0  0  0  0  0  0
    0.1047   26.2940    3.9191 H   0  0  0  0  0  0  0  0  0  0  0  0
    2.9550   26.3966    4.1458 H   0  0  0  0  0  0  0  0  0  0  0  0
    3.5655   26.7534    5.0094 H   0  0  0  0  0  0  0  0  0  0  0  0
  1  2  2  0
  2  3  1  0
  3  4  1  0
  4  5  1  0
  3  6  1  0
  6  7  1  0
  7  8  1  0
  8  9  1  0
  9 10  2  0
  8 11  1  0
 11 12  1  0
 12 13  1  0
  2 14  1  0
 14 15  1  0
 15 16  1  0
 15 17  1  0
 18 15  1  6
 18 19  1  0
 20 19  1  6
 20 21  1  0
 20 22  1  0
 22 23  1  0
 23 24  2  3
 25 24  1  0
 25 26  1  1
 26 27  1  0
 27 28  1  0
 28 29  1  0
 29 30  1  0
 30 31  1  0
 31 32  1  0
 32 33  1  0
 32 34  1  0
 34 35  1  0
 22 36  1  6
 36 37  1  0
 37 38  1  1
 38 39  1  0
 37 14  1  0
 20 18  1  0
 37 22  1  0
 21 18  1  0
 28 25  1  0
 29 25  1  0
  1 40  1  0
  1 41  1  0
  3 42  1  1
  4 43  1  0
  4 44  1  0
  5 45  1  0
  5 46  1  0
  5 47  1  0
  6 48  1  0
  6 49  1  0
  7 50  1  0
  8 51  1  1
  9 52  1  0
 11 53  1  0
 11 54  1  0
 12 55  1  0
 12 56  1  0
 13 57  1  0
 13 58  1  0
 13 59  1  0
 14 60  1  1
 16 61  1  0
 16 62  1  0
 16 63  1  0
 17 64  1  0
 17 65  1  0
 17 66  1  0
 19 67  1  0
 19 68  1  0
 21 69  1  0
 21 70  1  0
 23 71  1  0
 24 72  1  0
 26 73  1  0
 26 74  1  0
 27 75  1  0
 27 76  1  0
 28 77  1  6
 29 78  1  6
 30 79  1  0
 30 80  1  0
 31 81  1  0
 31 82  1  0
 32 83  1  1
 33 84  1  0
 33 85  1  0
 33 86  1  0
 34 87  1  0
 34 88  1  0
 36 89  1  0
 36 90  1  0
 38 91  1  0
 38 92  1  0
 39 93  1  0
M  END
