
     RDKit          2D

 50 53  0  0  0  0  0  0  0  0999 V2000
   20.1885  -22.0273  -16.3836 C   0  0  0  0  0  0  0  0  0  0  0  0
   19.3693  -21.4490  -15.2680 C   0  0  0  0  0  0  0  0  0  0  0  0
   18.5500  -20.8706  -14.1525 C   0  0  0  0  0  0  0  0  0  0  0  0
   17.7307  -20.2923  -13.0371 C   0  0  0  0  0  0  0  0  0  0  0  0
   18.9532  -19.6179  -12.4888 F   0  0  0  0  0  0  0  0  0  0  0  0
   16.9113  -19.7140  -11.9216 O   0  0  0  0  0  0  0  0  0  0  0  0
   17.5603  -18.8402  -10.8895 C   0  0  0  0  0  0  0  0  0  0  0  0
   18.2092  -17.9664   -9.8573 C   0  0  0  0  0  0  0  0  0  0  0  0
   16.8883  -17.8024   -9.1656 C   0  0  0  0  0  0  0  0  0  0  0  0
   16.2394  -18.6763  -10.1978 C   0  0  0  0  0  0  0  0  0  0  0  0
   14.9185  -18.5122   -9.5061 C   0  0  0  0  0  0  0  0  0  0  0  0
   15.5674  -17.6385   -8.4740 C   0  0  0  0  0  0  0  0  0  0  0  0
   16.2163  -16.7646   -7.4418 C   0  0  0  0  0  0  0  0  0  0  0  0
   17.5098  -17.5001   -7.6324 C   0  0  0  0  0  0  0  0  0  0  0  0
   18.1586  -16.6263   -6.6002 O   0  0  0  0  0  0  0  0  0  0  0  0
   16.8653  -15.8909   -6.4097 C   0  0  0  0  0  0  0  0  0  0  0  0
   15.5719  -15.1554   -6.2191 C   0  0  0  0  0  0  0  0  0  0  0  0
   16.1443  -14.4595   -5.0199 C   0  0  0  0  0  0  0  0  0  0  0  0
   14.8509  -13.7241   -4.8294 C   0  0  0  0  0  0  0  0  0  0  0  0
   14.2785  -14.4199   -6.0286 C   0  0  0  0  0  0  0  0  0  0  0  0
   13.7062  -15.1158   -7.2278 C   0  0  0  0  0  0  0  0  0  0  0  0
   21.0078  -22.6057  -17.4991 H   0  0  0  0  0  0  0  0  0  0  0  0
   18.9652  -22.6985  -16.9339 H   0  0  0  0  0  0  0  0  0  0  0  0
   21.4118  -21.3561  -15.8331 H   0  0  0  0  0  0  0  0  0  0  0  0
   18.1451  -22.1165  -15.8211 H   0  0  0  0  0  0  0  0  0  0  0  0
   20.5934  -20.7814  -14.7150 H   0  0  0  0  0  0  0  0  0  0  0  0
   17.3366  -20.8891  -15.0342 H   0  0  0  0  0  0  0  0  0  0  0  0
   19.7634  -20.8521  -13.2709 H   0  0  0  0  0  0  0  0  0  0  0  0
   16.5082  -20.9667  -13.5853 H   0  0  0  0  0  0  0  0  0  0  0  0
   18.8812  -19.0042  -11.5810 H   0  0  0  0  0  0  0  0  0  0  0  0
   19.5301  -18.1304  -10.5489 H   0  0  0  0  0  0  0  0  0  0  0  0
   19.0143  -17.1191   -8.9171 H   0  0  0  0  0  0  0  0  0  0  0  0
   17.3928  -17.3729   -8.7223 H   0  0  0  0  0  0  0  0  0  0  0  0
   15.5905  -19.5501  -11.2300 H   0  0  0  0  0  0  0  0  0  0  0  0
   13.5976  -18.3483   -8.8145 H   0  0  0  0  0  0  0  0  0  0  0  0
   14.2696  -19.3861  -10.5383 H   0  0  0  0  0  0  0  0  0  0  0  0
   14.2465  -17.4745   -7.7823 H   0  0  0  0  0  0  0  0  0  0  0  0
   14.9230  -16.0292   -7.2513 H   0  0  0  0  0  0  0  0  0  0  0  0
   18.8725  -18.1235   -7.6956 H   0  0  0  0  0  0  0  0  0  0  0  0
   17.1931  -18.5259   -8.6800 H   0  0  0  0  0  0  0  0  0  0  0  0
   17.6670  -15.1132   -5.4084 H   0  0  0  0  0  0  0  0  0  0  0  0
   16.4402  -14.6582   -5.1016 H   0  0  0  0  0  0  0  0  0  0  0  0
   16.7166  -13.7637   -3.8207 H   0  0  0  0  0  0  0  0  0  0  0  0
   17.4978  -15.1047   -5.0628 H   0  0  0  0  0  0  0  0  0  0  0  0
   13.5575  -12.9886   -4.6388 H   0  0  0  0  0  0  0  0  0  0  0  0
   15.4233  -13.0282   -3.6301 H   0  0  0  0  0  0  0  0  0  0  0  0
   12.9852  -13.6845   -5.8381 H   0  0  0  0  0  0  0  0  0  0  0  0
   13.1338  -15.8117   -8.4271 H   0  0  0  0  0  0  0  0  0  0  0  0
   12.3511  -14.4742   -7.1821 H   0  0  0  0  0  0  0  0  0  0  0  0
   12.4906  -14.3046   -6.8898 H   0  0  0  0  0  0  0  0  0  0  0  0
  1  2  1  0
  2  3  1  0
  3  4  1  0
  4  5  1  0
  4  6  1  0
  6  7  1  0
  7  8  1  0
  8  9  1  0
  9 10  1  0
 10 11  1  0
 11 12  1  0
 12 13  1  0
 13 14  1  0
 14 15  1  0
 15 16  1  0
 16 17  1  0
 17 18  1  0
 18 19  1  0
 19 20  1  0
 20 21  1  0
 10  7  1  0
 16 13  1  0
 20 17  1  0
 12  9  1  0
  1 22  1  0
  1 23  1  0
  1 24  1  0
  2 25  1  0
  2 26  1  0
  3 27  1  0
  3 28  1  0
  4 29  1  0
  7 30  1  0
  8 31  1  0
  8 32  1  0
  9 33  1  0
 10 34  1  0
 11 35  1  0
 11 36  1  0
 12 37  1  0
 13 38  1  0
 14 39  1  0
 14 40  1  0
 16 41  1  0
 17 42  1  0
 18 43  1  0
 18 44  1  0
 19 45  1  0
 19 46  1  0
 20 47  1  0
 21 48  1  0
 21 49  1  0
 21 50  1  0
M  END
