
     RDKit          2D

 87 92  0  0  0  0  0  0  0  0999 V2000
   25.8568  -20.8410   -9.3387 C   0  0  0  0  0  0  0  0  0  0  0  0
   25.1530  -21.0679  -10.6437 C   0  0  0  0  0  0  0  0  0  0  0  0
   24.4491  -21.2948  -11.9487 C   0  0  0  0  0  0  0  0  0  0  0  0
   23.7453  -21.5216  -13.2538 C   0  0  0  0  0  0  0  0  0  0  0  0
   23.0415  -21.7485  -14.5589 C   0  0  0  0  0  0  0  0  0  0  0  0
   22.3376  -21.9753  -15.8639 C   0  0  0  0  0  0  0  0  0  0  0  0
   21.6338  -22.2022  -17.1689 N   0  0  0  0  0  0  0  0  0  0  0  0
   23.2342  -20.5955  -11.4151 C   0  0  0  0  0  0  0  0  0  0  0  0
   22.0191  -19.8961  -10.8814 C   0  0  0  0  0  0  0  0  0  0  0  0
   20.8042  -19.1969  -10.3476 C   0  0  0  0  0  0  0  0  0  0  0  0
   19.5892  -18.4976   -9.8140 N   0  0  0  0  0  0  0  0  0  0  0  0
   19.4412  -17.0148   -9.9857 Br  0  0  0  0  0  0  0  0  0  0  0  0
   18.5222  -19.2811   -9.1087 C   0  0  0  0  0  0  0  0  0  0  0  0
   17.4552  -20.0647   -8.4033 C   0  0  0  0  0  0  0  0  0  0  0  0
   16.3882  -20.8483   -7.6979 C   0  0  0  0  0  0  0  0  0  0  0  0
   15.1126  -21.6123   -7.8956 C   0  0  0  0  0  0  0  0  0  0  0  0
   15.5634  -21.1086   -9.2346 C   0  0  0  0  0  0  0  0  0  0  0  0
   14.0456  -22.3959   -7.1902 C   0  0  0  0  0  0  0  0  0  0  0  0
   13.5948  -22.8996   -5.8512 C   0  0  0  0  0  0  0  0  0  0  0  0
   12.3192  -23.6637   -6.0489 N   0  0  0  0  0  0  0  0  0  0  0  0
   11.6298  -24.2894   -4.8728 C   0  0  0  0  0  0  0  0  0  0  0  0
   12.5686  -23.8851   -3.7751 C   0  0  0  0  0  0  0  0  0  0  0  0
   13.5075  -23.4807   -2.6774 C   0  0  0  0  0  0  0  0  0  0  0  0
   10.6143  -25.0557   -4.0780 C   0  0  0  0  0  0  0  0  0  0  0  0
   10.4515  -24.9112   -5.5621 C   0  0  0  0  0  0  0  0  0  0  0  0
   13.9323  -22.9312   -4.3900 N   0  0  0  0  0  0  0  0  0  0  0  0
   14.9292  -22.4785   -3.3648 C   0  0  0  0  0  0  0  0  0  0  0  0
   16.2048  -21.7145   -3.1670 C   0  0  0  0  0  0  0  0  0  0  0  0
   17.2718  -20.9309   -3.8725 C   0  0  0  0  0  0  0  0  0  0  0  0
   17.7227  -20.4271   -5.2114 C   0  0  0  0  0  0  0  0  0  0  0  0
   18.7976  -19.9061   -4.3042 O   0  0  0  0  0  0  0  0  0  0  0  0
   18.6205  -19.7067   -6.1732 C   0  0  0  0  0  0  0  0  0  0  0  0
   17.3852  -20.3956   -6.6726 C   0  0  0  0  0  0  0  0  0  0  0  0
   15.5154  -22.3402   -1.9910 C   0  0  0  0  0  0  0  0  0  0  0  0
   14.8260  -22.9660   -0.8149 C   0  0  0  0  0  0  0  0  0  0  0  0
   14.2398  -23.1043   -2.1887 C   0  0  0  0  0  0  0  0  0  0  0  0
   26.5606  -20.6142   -8.0336 H   0  0  0  0  0  0  0  0  0  0  0  0
   27.0668  -21.5523   -9.8677 H   0  0  0  0  0  0  0  0  0  0  0  0
   24.6467  -20.1298   -8.8096 H   0  0  0  0  0  0  0  0  0  0  0  0
   24.4960  -20.6309  -10.2412 H   0  0  0  0  0  0  0  0  0  0  0  0
   26.3603  -21.7857  -11.1701 H   0  0  0  0  0  0  0  0  0  0  0  0
   25.6641  -21.9941  -12.4824 H   0  0  0  0  0  0  0  0  0  0  0  0
   24.9551  -22.2334  -13.7825 H   0  0  0  0  0  0  0  0  0  0  0  0
   22.9856  -21.1208  -13.0379 H   0  0  0  0  0  0  0  0  0  0  0  0
   24.2531  -22.4561  -15.0892 H   0  0  0  0  0  0  0  0  0  0  0  0
   21.8298  -21.0409  -14.0284 H   0  0  0  0  0  0  0  0  0  0  0  0
   23.5930  -22.5612  -16.4391 H   0  0  0  0  0  0  0  0  0  0  0  0
   21.0823  -21.3895  -15.2887 H   0  0  0  0  0  0  0  0  0  0  0  0
   21.0166  -23.5366  -17.4661 H   0  0  0  0  0  0  0  0  0  0  0  0
   21.5471  -21.0946  -18.1768 H   0  0  0  0  0  0  0  0  0  0  0  0
   23.5571  -20.4174  -10.6097 H   0  0  0  0  0  0  0  0  0  0  0  0
   22.7363  -20.6729  -12.1435 H   0  0  0  0  0  0  0  0  0  0  0  0
   21.3192  -20.1137  -12.1900 H   0  0  0  0  0  0  0  0  0  0  0  0
   22.7192  -19.6786   -9.5727 H   0  0  0  0  0  0  0  0  0  0  0  0
   21.5059  -18.9754   -9.0405 H   0  0  0  0  0  0  0  0  0  0  0  0
   20.1026  -19.4184  -11.6549 H   0  0  0  0  0  0  0  0  0  0  0  0
   18.0605  -19.8360  -10.4236 H   0  0  0  0  0  0  0  0  0  0  0  0
   19.1106  -18.6349   -7.8895 H   0  0  0  0  0  0  0  0  0  0  0  0
   18.2810  -19.7484   -7.1916 H   0  0  0  0  0  0  0  0  0  0  0  0
   16.9953  -20.2106   -9.2610 H   0  0  0  0  0  0  0  0  0  0  0  0
   16.3667  -20.6824   -8.7785 H   0  0  0  0  0  0  0  0  0  0  0  0
   14.3096  -21.9425   -8.9293 H   0  0  0  0  0  0  0  0  0  0  0  0
   16.0143  -20.6048  -10.5736 H   0  0  0  0  0  0  0  0  0  0  0  0
   14.2861  -20.8074   -9.5514 H   0  0  0  0  0  0  0  0  0  0  0  0
   16.8408  -21.4097   -8.9179 H   0  0  0  0  0  0  0  0  0  0  0  0
   13.5605  -22.4637   -8.6079 H   0  0  0  0  0  0  0  0  0  0  0  0
   12.7700  -23.1599   -7.3880 H   0  0  0  0  0  0  0  0  0  0  0  0
   11.7330  -23.8020   -7.4226 H   0  0  0  0  0  0  0  0  0  0  0  0
   11.8235  -24.5365   -2.6479 H   0  0  0  0  0  0  0  0  0  0  0  0
   13.6361  -23.1023   -4.4805 H   0  0  0  0  0  0  0  0  0  0  0  0
   14.6279  -22.9173   -1.8544 H   0  0  0  0  0  0  0  0  0  0  0  0
   14.2522  -22.8285   -3.8044 H   0  0  0  0  0  0  0  0  0  0  0  0
   13.1841  -23.9148   -1.2784 H   0  0  0  0  0  0  0  0  0  0  0  0
   11.0579  -25.0162   -2.6456 H   0  0  0  0  0  0  0  0  0  0  0  0
    9.3953  -25.8699   -3.7603 H   0  0  0  0  0  0  0  0  0  0  0  0
    9.1759  -25.6752   -5.7597 H   0  0  0  0  0  0  0  0  0  0  0  0
   10.7317  -24.5013   -6.9775 H   0  0  0  0  0  0  0  0  0  0  0  0
   16.9967  -21.4256   -1.9263 H   0  0  0  0  0  0  0  0  0  0  0  0
   17.7570  -20.8630   -2.4547 H   0  0  0  0  0  0  0  0  0  0  0  0
   18.4951  -20.2577   -3.3244 H   0  0  0  0  0  0  0  0  0  0  0  0
   19.9951  -19.0928   -4.6974 H   0  0  0  0  0  0  0  0  0  0  0  0
   19.7514  -19.1332   -5.3719 H   0  0  0  0  0  0  0  0  0  0  0  0
   19.2911  -19.0901   -7.3649 H   0  0  0  0  0  0  0  0  0  0  0  0
   18.3294  -19.6562   -7.5738 H   0  0  0  0  0  0  0  0  0  0  0  0
   15.7649  -22.5615    0.2828 H   0  0  0  0  0  0  0  0  0  0  0  0
   13.8106  -23.7322   -0.0200 H   0  0  0  0  0  0  0  0  0  0  0  0
   13.0277  -23.9184   -1.8456 H   0  0  0  0  0  0  0  0  0  0  0  0
  1  2  1  0
  2  3  1  0
  3  4  1  0
  4  5  1  0
  5  6  1  0
  6  7  1  0
  3  8  1  0
  8  9  1  0
  9 10  1  0
 10 11  1  0
 11 12  1  0
 11 13  1  0
 13 14  1  0
 14 15  1  0
 15 16  1  0
 16 17  1  0
 16 18  1  0
 18 19  1  0
 19 20  1  0
 20 21  1  0
 21 22  1  0
 22 23  1  0
 21 24  1  0
 24 25  1  0
 19 26  2  0
 26 27  1  0
 27 28  1  0
 28 29  1  0
 29 30  1  0
 30 31  1  0
 30 32  1  0
 32 33  1  0
 28 34  1  0
 34 35  1  0
 35 36  1  0
 33 15  1  0
 36 34  1  0
 25 21  1  0
 34 27  1  0
 36 27  1  0
 33 30  1  0
  1 37  1  0
  1 38  1  0
  1 39  1  0
  2 40  1  0
  2 41  1  0
  3 42  1  0
  4 43  1  0
  4 44  1  0
  5 45  1  0
  5 46  1  0
  6 47  1  0
  6 48  1  0
  7 49  1  0
  7 50  1  0
  8 51  1  0
  8 52  1  0
  9 53  1  0
  9 54  1  0
 10 55  1  0
 10 56  1  0
 13 57  1  0
 13 58  1  0
 14 59  1  0
 14 60  1  0
 15 61  1  0
 16 62  1  0
 17 63  1  0
 17 64  1  0
 17 65  1  0
 18 66  1  0
 18 67  1  0
 20 68  1  0
 22 69  1  0
 22 70  1  0
 23 71  1  0
 23 72  1  0
 23 73  1  0
 24 74  1  0
 24 75  1  0
 25 76  1  0
 25 77  1  0
 28 78  1  0
 29 79  1  0
 29 80  1  0
 31 81  1  0
 32 82  1  0
 32 83  1  0
 33 84  1  0
 35 85  1  0
 35 86  1  0
 36 87  1  0
M  END
