
     RDKit          2D

 38 39  0  0  0  0  0  0  0  0999 V2000
   -1.7069   23.5128    0.4167 C   0  0  0  0  0  0  0  0  0  0  0  0
   -0.8300   23.9535    1.5510 C   0  0  0  0  0  0  0  0  0  0  0  0
   -1.1600   25.2031    2.3125 C   0  0  0  0  0  0  0  0  0  0  0  0
   -0.0324   25.2108    3.3016 C   0  0  0  0  0  0  0  0  0  0  0  0
    0.8445   25.6515    4.4359 C   0  0  0  0  0  0  0  0  0  0  0  0
    1.7214   26.0923    5.5703 C   0  0  0  0  0  0  0  0  0  0  0  0
    2.5984   26.5331    6.7046 C   0  0  0  0  0  0  0  0  0  0  0  0
    3.4754   26.9738    7.8390 C   0  0  0  0  0  0  0  0  0  0  0  0
    4.3524   27.4145    8.9733 C   0  0  0  0  0  0  0  0  0  0  0  0
   -1.0587   26.3046    3.3256 C   0  0  0  0  0  0  0  0  0  0  0  0
   -2.2656   27.1133    2.9527 C   0  0  0  0  0  0  0  0  0  0  0  0
   -2.7862   26.2928    1.8101 O   0  0  0  0  0  0  0  0  0  0  0  0
   -3.2918   28.2071    2.9766 O   0  0  0  0  0  0  0  0  0  0  0  0
   -2.1643   28.2148    3.9658 C   0  0  0  0  0  0  0  0  0  0  0  0
   -2.4943   29.4644    4.7273 C   0  0  0  0  0  0  0  0  0  0  0  0
   -2.8244   30.7139    5.4887 O   0  0  0  0  0  0  0  0  0  0  0  0
   -1.3769   22.2633   -0.3447 H   0  0  0  0  0  0  0  0  0  0  0  0
   -2.9139   24.3216    0.0438 H   0  0  0  0  0  0  0  0  0  0  0  0
    0.3770   23.1448    1.9239 H   0  0  0  0  0  0  0  0  0  0  0  0
   -2.3372   25.3278    1.3912 H   0  0  0  0  0  0  0  0  0  0  0  0
    0.6892   23.9640    2.8838 H   0  0  0  0  0  0  0  0  0  0  0  0
    1.7327   24.4640    4.2108 H   0  0  0  0  0  0  0  0  0  0  0  0
    0.2171   26.6499    4.7290 H   0  0  0  0  0  0  0  0  0  0  0  0
    2.6091   24.9041    5.3458 H   0  0  0  0  0  0  0  0  0  0  0  0
    0.8339   27.2805    5.7948 H   0  0  0  0  0  0  0  0  0  0  0  0
    1.7120   27.7224    6.9277 H   0  0  0  0  0  0  0  0  0  0  0  0
    3.4848   25.3438    6.4815 H   0  0  0  0  0  0  0  0  0  0  0  0
    4.3635   25.7861    7.6138 H   0  0  0  0  0  0  0  0  0  0  0  0
    2.5873   28.1615    8.0640 H   0  0  0  0  0  0  0  0  0  0  0  0
    5.2294   27.8552   10.1076 H   0  0  0  0  0  0  0  0  0  0  0  0
    5.2393   26.2256    8.7494 H   0  0  0  0  0  0  0  0  0  0  0  0
    3.4655   28.6033    9.1971 H   0  0  0  0  0  0  0  0  0  0  0  0
   -0.6370   26.9693    4.2512 H   0  0  0  0  0  0  0  0  0  0  0  0
   -4.0284   26.7189    1.0853 H   0  0  0  0  0  0  0  0  0  0  0  0
   -0.9455   27.9373    4.7950 H   0  0  0  0  0  0  0  0  0  0  0  0
   -1.3691   29.1821    5.6782 H   0  0  0  0  0  0  0  0  0  0  0  0
   -3.6195   29.7466    3.7763 H   0  0  0  0  0  0  0  0  0  0  0  0
   -4.0313   31.5227    5.1158 H   0  0  0  0  0  0  0  0  0  0  0  0
  1  2  2  3
  2  3  1  0
  3  4  1  0
  4  5  1  0
  5  6  1  0
  6  7  1  0
  7  8  1  0
  8  9  1  0
  4 10  1  0
 10 11  1  0
 11 12  1  0
 11 13  1  0
 13 14  1  0
 14 15  1  0
 15 16  1  0
 10  3  1  0
 14 11  1  0
  1 17  1  0
  1 18  1  0
  2 19  1  0
  3 20  1  0
  4 21  1  0
  5 22  1  0
  5 23  1  0
  6 24  1  0
  6 25  1  0
  7 26  1  0
  7 27  1  0
  8 28  1  0
  8 29  1  0
  9 30  1  0
  9 31  1  0
  9 32  1  0
 10 33  1  0
 12 34  1  0
 14 35  1  0
 15 36  1  0
 15 37  1  0
 16 38  1  0
M  END
