
     RDKit          2D

102111  0  0  0  0  0  0  0  0999 V2000
   15.4999  -21.1889  -10.7929 C   0  0  0  0  0  0  0  0  0  0  0  0
   16.8422  -20.8514  -11.3710 C   0  0  0  0  0  0  0  0  0  0  0  0
   17.0412  -20.8558  -12.8577 C   0  0  0  0  0  0  0  0  0  0  0  0
   17.2401  -20.8601  -14.3444 C   0  0  0  0  0  0  0  0  0  0  0  0
   17.4390  -20.8645  -15.8312 C   0  0  0  0  0  0  0  0  0  0  0  0
   15.8047  -21.2511  -14.5354 C   0  0  0  0  0  0  0  0  0  0  0  0
   14.3692  -21.6421  -14.7263 C   0  0  0  0  0  0  0  0  0  0  0  0
   12.9337  -22.0332  -14.9174 C   0  0  0  0  0  0  0  0  0  0  0  0
   11.4982  -22.4242  -15.1083 C   0  0  0  0  0  0  0  0  0  0  0  0
   10.2173  -22.7931  -15.7962 C   0  0  0  0  0  0  0  0  0  0  0  0
   11.4449  -22.4964  -16.6056 C   0  0  0  0  0  0  0  0  0  0  0  0
   17.9857  -20.5096  -10.4622 C   0  0  0  0  0  0  0  0  0  0  0  0
   18.8756  -20.3174  -11.6543 N   0  0  0  0  0  0  0  0  0  0  0  0
   20.0190  -19.9756  -10.7457 C   0  0  0  0  0  0  0  0  0  0  0  0
   21.1624  -19.6338   -9.8370 C   0  0  0  0  0  0  0  0  0  0  0  0
   20.1577  -19.8599   -8.7464 O   0  0  0  0  0  0  0  0  0  0  0  0
   20.5596  -19.6960   -7.3106 C   0  0  0  0  0  0  0  0  0  0  0  0
   21.9281  -19.4791  -11.1175 C   0  0  0  0  0  0  0  0  0  0  0  0
   22.7242  -19.3155  -12.3783 C   0  0  0  0  0  0  0  0  0  0  0  0
   24.1708  -18.9254  -12.3066 C   0  0  0  0  0  0  0  0  0  0  0  0
   23.3748  -19.0890  -11.0459 C   0  0  0  0  0  0  0  0  0  0  0  0
   22.3444  -19.3230   -9.9812 C   0  0  0  0  0  0  0  0  0  0  0  0
   21.0570  -19.6942  -10.6555 C   0  0  0  0  0  0  0  0  0  0  0  0
   20.0266  -19.9282   -9.5909 C   0  0  0  0  0  0  0  0  0  0  0  0
   20.6772  -19.7017   -8.2584 C   0  0  0  0  0  0  0  0  0  0  0  0
   19.3216  -20.0433   -7.7149 C   0  0  0  0  0  0  0  0  0  0  0  0
   17.9659  -20.3849   -7.1714 C   0  0  0  0  0  0  0  0  0  0  0  0
   16.6102  -20.7265   -6.6279 C   0  0  0  0  0  0  0  0  0  0  0  0
   18.4593  -20.1268   -5.7786 C   0  0  0  0  0  0  0  0  0  0  0  0
   18.9527  -19.8687   -4.3857 C   0  0  0  0  0  0  0  0  0  0  0  0
   19.4461  -19.6106   -2.9929 N   0  0  0  0  0  0  0  0  0  0  0  0
   20.7536  -19.1866   -2.3924 C   0  0  0  0  0  0  0  0  0  0  0  0
   20.1439  -19.2456   -1.0231 C   0  0  0  0  0  0  0  0  0  0  0  0
   19.5341  -19.3047    0.3461 C   0  0  0  0  0  0  0  0  0  0  0  0
   18.2266  -19.7287   -0.2545 C   0  0  0  0  0  0  0  0  0  0  0  0
   18.8364  -19.6697   -1.6237 C   0  0  0  0  0  0  0  0  0  0  0  0
   18.9620  -19.5088   -0.1377 C   0  0  0  0  0  0  0  0  0  0  0  0
   22.1097  -19.3276   -8.4996 C   0  0  0  0  0  0  0  0  0  0  0  0
   23.1286  -19.0134   -7.4446 F   0  0  0  0  0  0  0  0  0  0  0  0
   21.2917  -19.6896  -12.1371 C   0  0  0  0  0  0  0  0  0  0  0  0
   19.8452  -20.0797  -12.2087 C   0  0  0  0  0  0  0  0  0  0  0  0
   18.3985  -20.4698  -12.2803 C   0  0  0  0  0  0  0  0  0  0  0  0
   19.1290  -20.1678   -9.5536 C   0  0  0  0  0  0  0  0  0  0  0  0
   17.9889  -20.4370   -8.6168 F   0  0  0  0  0  0  0  0  0  0  0  0
   14.3564  -21.5308  -11.7016 H   0  0  0  0  0  0  0  0  0  0  0  0
   15.3009  -21.1846   -9.3062 H   0  0  0  0  0  0  0  0  0  0  0  0
   15.5939  -21.2497  -12.8658 H   0  0  0  0  0  0  0  0  0  0  0  0
   18.4510  -20.4863  -13.2126 H   0  0  0  0  0  0  0  0  0  0  0  0
   18.6892  -20.4726  -14.3361 H   0  0  0  0  0  0  0  0  0  0  0  0
   17.6381  -20.8688  -17.3180 H   0  0  0  0  0  0  0  0  0  0  0  0
   16.0389  -21.2545  -16.2019 H   0  0  0  0  0  0  0  0  0  0  0  0
   18.8742  -20.4721  -15.6404 H   0  0  0  0  0  0  0  0  0  0  0  0
   15.6317  -20.6516  -15.8994 H   0  0  0  0  0  0  0  0  0  0  0  0
   15.6276  -21.9460  -13.2179 H   0  0  0  0  0  0  0  0  0  0  0  0
   14.5682  -21.6468  -16.2131 H   0  0  0  0  0  0  0  0  0  0  0  0
   14.1702  -21.6375  -13.2396 H   0  0  0  0  0  0  0  0  0  0  0  0
   13.3064  -21.9909  -16.3697 H   0  0  0  0  0  0  0  0  0  0  0  0
   12.7345  -22.0277  -13.4306 H   0  0  0  0  0  0  0  0  0  0  0  0
   11.0530  -22.4878  -13.6772 H   0  0  0  0  0  0  0  0  0  0  0  0
    9.3272  -22.9848  -14.6041 H   0  0  0  0  0  0  0  0  0  0  0  0
    9.2455  -23.0954  -16.8981 H   0  0  0  0  0  0  0  0  0  0  0  0
   10.8994  -22.6957  -17.9886 H   0  0  0  0  0  0  0  0  0  0  0  0
   12.8142  -22.1500  -17.1105 H   0  0  0  0  0  0  0  0  0  0  0  0
   16.9630  -20.7420   -9.3899 H   0  0  0  0  0  0  0  0  0  0  0  0
   19.0496  -20.3288  -13.1442 H   0  0  0  0  0  0  0  0  0  0  0  0
   19.1290  -20.1678   -9.5536 H   0  0  0  0  0  0  0  0  0  0  0  0
   20.9614  -19.5320   -5.8747 H   0  0  0  0  0  0  0  0  0  0  0  0
   19.3204  -20.0519   -6.5439 H   0  0  0  0  0  0  0  0  0  0  0  0
   21.9932  -19.2606   -7.3823 H   0  0  0  0  0  0  0  0  0  0  0  0
   20.4795  -19.8677  -11.1370 H   0  0  0  0  0  0  0  0  0  0  0  0
   24.5046  -18.8935  -13.7687 H   0  0  0  0  0  0  0  0  0  0  0  0
   25.5015  -18.5464  -11.7272 H   0  0  0  0  0  0  0  0  0  0  0  0
   23.6319  -18.9518   -9.3067 H   0  0  0  0  0  0  0  0  0  0  0  0
   19.9688  -20.0240  -11.6338 H   0  0  0  0  0  0  0  0  0  0  0  0
   18.7758  -20.2923  -10.3343 H   0  0  0  0  0  0  0  0  0  0  0  0
   18.9115  -20.1887   -8.6221 H   0  0  0  0  0  0  0  0  0  0  0  0
   21.3728  -19.4641   -6.9508 H   0  0  0  0  0  0  0  0  0  0  0  0
   19.8343  -19.8549   -6.3179 H   0  0  0  0  0  0  0  0  0  0  0  0
   18.2324  -20.3700   -8.6931 H   0  0  0  0  0  0  0  0  0  0  0  0
   17.1591  -20.7180   -8.3913 H   0  0  0  0  0  0  0  0  0  0  0  0
   15.2546  -21.0681   -6.0843 H   0  0  0  0  0  0  0  0  0  0  0  0
   16.9528  -20.5776   -5.1751 H   0  0  0  0  0  0  0  0  0  0  0  0
   16.0986  -20.9184   -8.0247 H   0  0  0  0  0  0  0  0  0  0  0  0
   17.1793  -20.4530   -5.0678 H   0  0  0  0  0  0  0  0  0  0  0  0
   19.8888  -19.7147   -5.9704 H   0  0  0  0  0  0  0  0  0  0  0  0
   17.5936  -20.1981   -3.8432 H   0  0  0  0  0  0  0  0  0  0  0  0
   20.3118  -19.5393   -4.9282 H   0  0  0  0  0  0  0  0  0  0  0  0
   22.0611  -18.7625   -1.7918 H   0  0  0  0  0  0  0  0  0  0  0  0
   21.3633  -19.1275   -3.7616 H   0  0  0  0  0  0  0  0  0  0  0  0
   19.0883  -19.3116    1.7783 H   0  0  0  0  0  0  0  0  0  0  0  0
   20.8416  -18.8806    0.9466 H   0  0  0  0  0  0  0  0  0  0  0  0
   16.9191  -20.1528   -0.8550 H   0  0  0  0  0  0  0  0  0  0  0  0
   17.4621  -19.8390    1.0313 H   0  0  0  0  0  0  0  0  0  0  0  0
   17.6244  -19.8412    0.4542 H   0  0  0  0  0  0  0  0  0  0  0  0
   19.4077  -19.2628    1.2733 H   0  0  0  0  0  0  0  0  0  0  0  0
   21.2240  -19.7665  -13.6335 H   0  0  0  0  0  0  0  0  0  0  0  0
   19.9301  -20.1197  -13.7058 H   0  0  0  0  0  0  0  0  0  0  0  0
   19.0908  -20.2275  -10.9206 H   0  0  0  0  0  0  0  0  0  0  0  0
   17.0152  -20.8571  -12.7122 H   0  0  0  0  0  0  0  0  0  0  0  0
   18.4824  -20.5061  -13.7776 H   0  0  0  0  0  0  0  0  0  0  0  0
   17.8016  -20.5757  -10.9082 H   0  0  0  0  0  0  0  0  0  0  0  0
   19.7207  -19.9562   -8.1915 H   0  0  0  0  0  0  0  0  0  0  0  0
  1  2  2  3
  2  3  1  0
  3  4  1  0
  4  5  1  0
  4  6  1  0
  6  7  1  0
  7  8  1  0
  8  9  1  0
  9 10  1  0
 10 11  1  0
  2 12  1  0
 12 13  1  0
 13 14  1  0
 14 15  1  0
 15 16  1  0
 16 17  1  0
 15 18  1  0
 18 19  1  0
 19 20  1  0
 20 21  1  0
 21 22  1  0
 22 23  1  0
 23 24  1  0
 24 25  1  0
 25 26  1  0
 26 27  1  0
 27 28  1  0
 27 29  1  0
 29 30  1  0
 30 31  1  0
 31 32  1  0
 32 33  1  0
 33 34  1  0
 34 35  1  0
 35 36  1  0
 36 37  1  0
 25 38  1  0
 38 39  1  0
 23 40  1  0
 40 41  1  0
 41 42  1  0
 14 43  1  0
 43 44  1  0
 11  9  1  0
 43 12  1  0
 38 15  1  0
 21 18  1  0
 38 22  1  0
 21 19  1  0
 36 31  1  0
 40 19  1  0
 36 33  1  0
 37 33  1  0
  1 45  1  0
  1 46  1  0
  3 47  1  0
  3 48  1  0
  4 49  1  0
  5 50  1  0
  5 51  1  0
  5 52  1  0
  6 53  1  0
  6 54  1  0
  7 55  1  0
  7 56  1  0
  8 57  1  0
  8 58  1  0
  9 59  1  0
 10 60  1  0
 10 61  1  0
 11 62  1  0
 11 63  1  0
 12 64  1  0
 13 65  1  0
 14 66  1  0
 17 67  1  0
 17 68  1  0
 17 69  1  0
 18 70  1  0
 20 71  1  0
 20 72  1  0
 22 73  1  0
 23 74  1  0
 24 75  1  0
 24 76  1  0
 25 77  1  0
 26 78  1  0
 26 79  1  0
 27 80  1  0
 28 81  1  0
 28 82  1  0
 28 83  1  0
 29 84  1  0
 29 85  1  0
 30 86  1  0
 30 87  1  0
 32 88  1  0
 32 89  1  0
 34 90  1  0
 34 91  1  0
 35 92  1  0
 35 93  1  0
 37 94  1  0
 37 95  1  0
 40 96  1  0
 41 97  1  0
 41 98  1  0
 42 99  1  0
 42100  1  0
 42101  1  0
 43102  1  0
M  END
