
     RDKit          2D

 53 58  0  0  0  0  0  0  0  0999 V2000
   -0.6028   29.3533    5.6979 C   0  0  0  0  0  0  0  0  0  0  0  0
    0.6866   28.7013    5.2949 N   0  0  0  0  0  0  0  0  0  0  0  0
    1.2056   27.5250    6.0674 N   0  0  0  0  0  0  0  0  0  0  0  0
    0.4354   27.0006    7.2429 C   0  0  0  0  0  0  0  0  0  0  0  0
   -0.3350   26.4763    8.4183 N   0  0  0  0  0  0  0  0  0  0  0  0
   -1.3734   25.4122    8.2201 C   0  0  0  0  0  0  0  0  0  0  0  0
   -2.4118   24.3480    8.0220 C   0  0  0  0  0  0  0  0  0  0  0  0
   -2.7957   25.7956    7.9373 N   0  0  0  0  0  0  0  0  0  0  0  0
   -2.0950   24.5523    8.0832 C   0  0  0  0  0  0  0  0  0  0  0  0
   -0.9895   23.9646    8.3048 N   0  0  0  0  0  0  0  0  0  0  0  0
    2.4950   26.8730    5.6644 N   0  0  0  0  0  0  0  0  0  0  0  0
    3.2653   27.3973    4.4890 C   0  0  0  0  0  0  0  0  0  0  0  0
    3.5063   28.3277    3.3374 C   0  0  0  0  0  0  0  0  0  0  0  0
    4.6533   28.3421    2.3709 C   0  0  0  0  0  0  0  0  0  0  0  0
    5.8427   27.4296    2.3173 C   0  0  0  0  0  0  0  0  0  0  0  0
    6.2710   28.2418    1.1312 C   0  0  0  0  0  0  0  0  0  0  0  0
    7.1175   27.0960    1.6008 C   0  0  0  0  0  0  0  0  0  0  0  0
    8.2329   27.1691    0.6005 C   0  0  0  0  0  0  0  0  0  0  0  0
    6.1787   26.2774    3.2170 C   0  0  0  0  0  0  0  0  0  0  0  0
    5.4084   25.7531    4.3925 C   0  0  0  0  0  0  0  0  0  0  0  0
    6.5072   24.7396    4.5174 C   0  0  0  0  0  0  0  0  0  0  0  0
    4.8023   25.0773    5.5866 C   0  0  0  0  0  0  0  0  0  0  0  0
    4.1118   26.2515    4.9585 C   0  0  0  0  0  0  0  0  0  0  0  0
   -1.8923   30.0054    6.1008 H   0  0  0  0  0  0  0  0  0  0  0  0
   -0.4575   30.3356    4.5736 H   0  0  0  0  0  0  0  0  0  0  0  0
   -0.9043   28.4578    6.8629 H   0  0  0  0  0  0  0  0  0  0  0  0
    1.3238   29.3504    4.1021 H   0  0  0  0  0  0  0  0  0  0  0  0
   -0.6943   27.9853    7.1751 H   0  0  0  0  0  0  0  0  0  0  0  0
    1.4788   25.9443    7.4555 H   0  0  0  0  0  0  0  0  0  0  0  0
   -0.0669   27.0162    9.7919 H   0  0  0  0  0  0  0  0  0  0  0  0
   -3.5696   23.4207    7.7994 H   0  0  0  0  0  0  0  0  0  0  0  0
   -2.4580   22.4597    8.0245 H   0  0  0  0  0  0  0  0  0  0  0  0
   -3.9214   23.7719    7.7279 H   0  0  0  0  0  0  0  0  0  0  0  0
    2.8652   25.7144    6.5423 H   0  0  0  0  0  0  0  0  0  0  0  0
    2.0216   28.2120    4.6876 H   0  0  0  0  0  0  0  0  0  0  0  0
    2.2364   29.0698    3.6320 H   0  0  0  0  0  0  0  0  0  0  0  0
    3.0200   29.5015    2.5402 H   0  0  0  0  0  0  0  0  0  0  0  0
    3.9330   29.5130    1.7709 H   0  0  0  0  0  0  0  0  0  0  0  0
    5.2906   28.9912    1.1781 H   0  0  0  0  0  0  0  0  0  0  0  0
    5.2249   29.2961    0.9207 H   0  0  0  0  0  0  0  0  0  0  0  0
    6.9638   28.8410   -0.0567 H   0  0  0  0  0  0  0  0  0  0  0  0
    7.7212   25.9173    2.3054 H   0  0  0  0  0  0  0  0  0  0  0  0
    9.3483   27.2421   -0.3998 H   0  0  0  0  0  0  0  0  0  0  0  0
    8.8868   25.9817    1.2428 H   0  0  0  0  0  0  0  0  0  0  0  0
    7.7199   28.3565   -0.1590 H   0  0  0  0  0  0  0  0  0  0  0  0
    7.3912   26.1480    2.3433 H   0  0  0  0  0  0  0  0  0  0  0  0
    7.1387   25.1738    3.5492 H   0  0  0  0  0  0  0  0  0  0  0  0
    7.6059   23.7261    4.6423 H   0  0  0  0  0  0  0  0  0  0  0  0
    5.9541   24.0163    5.7094 H   0  0  0  0  0  0  0  0  0  0  0  0
    7.3281   25.2159    3.3558 H   0  0  0  0  0  0  0  0  0  0  0  0
    5.7222   23.9562    5.9700 H   0  0  0  0  0  0  0  0  0  0  0  0
    3.8404   24.7725    6.6966 H   0  0  0  0  0  0  0  0  0  0  0  0
    3.1697   25.9212    6.0781 H   0  0  0  0  0  0  0  0  0  0  0  0
  1  2  1  0
  2  3  1  0
  3  4  1  0
  4  5  1  0
  5  6  1  0
  6  7  1  0
  7  8  1  0
  8  9  1  0
  9 10  1  0
  3 11  1  0
 11 12  1  0
 12 13  1  0
 13 14  1  0
 14 15  1  0
 15 16  1  0
 16 17  1  0
 17 18  1  0
 15 19  1  0
 19 20  1  0
 20 21  1  0
 20 22  1  0
 22 23  1  0
  8  6  1  0
 23 12  1  0
 10  6  1  0
 17 15  1  0
 23 20  1  0
 10  7  1  0
  1 24  1  0
  1 25  1  0
  1 26  1  0
  2 27  1  0
  4 28  1  0
  4 29  1  0
  5 30  1  0
  7 31  1  0
  9 32  1  0
  9 33  1  0
 11 34  1  0
 12 35  1  0
 13 36  1  0
 13 37  1  0
 14 38  1  0
 14 39  1  0
 16 40  1  0
 16 41  1  0
 17 42  1  0
 18 43  1  0
 18 44  1  0
 18 45  1  0
 19 46  1  0
 19 47  1  0
 21 48  1  0
 21 49  1  0
 21 50  1  0
 22 51  1  0
 22 52  1  0
 23 53  1  0
M  END
