
     RDKit          2D

 35 39  0  0  0  0  0  0  0  0999 V2000
   14.0981  -19.1219  -10.3572 O   0  0  0  0  0  0  0  0  0  0  0  0
   15.4836  -19.6143  -10.6531 C   0  0  0  0  0  0  0  0  0  0  0  0
   16.8693  -20.1069  -10.9490 C   0  0  0  0  0  0  0  0  0  0  0  0
   16.8163  -19.4471  -12.2950 C   0  0  0  0  0  0  0  0  0  0  0  0
   16.7635  -18.7873  -13.6411 C   0  0  0  0  0  0  0  0  0  0  0  0
   18.1503  -19.2770  -13.9356 C   0  0  0  0  0  0  0  0  0  0  0  0
   18.0974  -18.6173  -15.2817 C   0  0  0  0  0  0  0  0  0  0  0  0
   19.4233  -18.9195  -15.9145 O   0  0  0  0  0  0  0  0  0  0  0  0
   17.3582  -17.8010  -16.3001 C   0  0  0  0  0  0  0  0  0  0  0  0
   16.7105  -18.1275  -14.9871 C   0  0  0  0  0  0  0  0  0  0  0  0
   16.9222  -20.7667   -9.6028 C   0  0  0  0  0  0  0  0  0  0  0  0
   17.4007  -21.5463   -8.4141 C   0  0  0  0  0  0  0  0  0  0  0  0
   16.3108  -21.5357   -7.3836 N   0  0  0  0  0  0  0  0  0  0  0  0
   15.1587  -20.7494   -7.9354 C   0  0  0  0  0  0  0  0  0  0  0  0
   15.5366  -20.2741   -9.3070 C   0  0  0  0  0  0  0  0  0  0  0  0
   16.6886  -21.0604   -8.7552 C   0  0  0  0  0  0  0  0  0  0  0  0
   13.3596  -18.3039  -11.3749 H   0  0  0  0  0  0  0  0  0  0  0  0
   15.3530  -19.1922  -11.4207 H   0  0  0  0  0  0  0  0  0  0  0  0
   18.2549  -20.5994  -11.2448 H   0  0  0  0  0  0  0  0  0  0  0  0
   17.6324  -19.7829  -12.3714 H   0  0  0  0  0  0  0  0  0  0  0  0
   16.0003  -19.1113  -12.2186 H   0  0  0  0  0  0  0  0  0  0  0  0
   15.3766  -18.2976  -13.3465 H   0  0  0  0  0  0  0  0  0  0  0  0
   19.5372  -19.7667  -14.2302 H   0  0  0  0  0  0  0  0  0  0  0  0
   18.2811  -19.6989  -13.1679 H   0  0  0  0  0  0  0  0  0  0  0  0
   19.7312  -18.4090  -17.2910 H   0  0  0  0  0  0  0  0  0  0  0  0
   18.3865  -17.7520  -17.3910 H   0  0  0  0  0  0  0  0  0  0  0  0
   16.2618  -17.0018  -16.9397 H   0  0  0  0  0  0  0  0  0  0  0  0
   15.3572  -17.4838  -15.0510 H   0  0  0  0  0  0  0  0  0  0  0  0
   18.2824  -21.1498  -10.1056 H   0  0  0  0  0  0  0  0  0  0  0  0
   18.6450  -21.7279   -9.2319 H   0  0  0  0  0  0  0  0  0  0  0  0
   18.1393  -22.3640   -7.3963 H   0  0  0  0  0  0  0  0  0  0  0  0
   14.5117  -21.0745   -6.6217 H   0  0  0  0  0  0  0  0  0  0  0  0
   13.8714  -20.0311   -8.2126 H   0  0  0  0  0  0  0  0  0  0  0  0
   17.4999  -21.4144   -8.7892 H   0  0  0  0  0  0  0  0  0  0  0  0
   17.6132  -20.9279   -9.9290 H   0  0  0  0  0  0  0  0  0  0  0  0
  1  2  1  0
  2  3  1  0
  3  4  1  0
  4  5  1  0
  5  6  1  0
  6  7  1  0
  7  8  1  0
  7  9  1  0
  9 10  1  0
  3 11  1  0
 11 12  1  0
 12 13  1  0
 13 14  1  0
 14 15  1  0
 15 16  1  0
 15  2  1  0
 10  5  1  0
 15 11  1  0
 10  7  1  0
 16 13  1  0
  1 17  1  0
  2 18  1  0
  3 19  1  0
  4 20  1  0
  4 21  1  0
  5 22  1  0
  6 23  1  0
  6 24  1  0
  8 25  1  0
  9 26  1  0
  9 27  1  0
 10 28  1  0
 11 29  1  0
 12 30  1  0
 12 31  1  0
 14 32  1  0
 14 33  1  0
 16 34  1  0
 16 35  1  0
M  END
