
     RDKit          2D

 95104  0  0  0  0  0  0  0  0999 V2000
   17.7578  -24.9583   -3.9447 C   0  0  0  0  0  0  0  0  0  0  0  0
   18.0469  -24.4390   -5.3220 C   0  0  0  0  0  0  0  0  0  0  0  0
   17.0355  -23.5869   -6.0298 C   0  0  0  0  0  0  0  0  0  0  0  0
   16.0241  -22.7347   -6.7376 C   0  0  0  0  0  0  0  0  0  0  0  0
   14.7269  -22.0000   -6.9037 C   0  0  0  0  0  0  0  0  0  0  0  0
   14.7322  -21.3498   -8.2554 C   0  0  0  0  0  0  0  0  0  0  0  0
   16.0326  -21.6827   -8.9248 C   0  0  0  0  0  0  0  0  0  0  0  0
   16.1331  -21.0732  -10.2917 C   0  0  0  0  0  0  0  0  0  0  0  0
   17.0856  -20.9954  -11.4479 C   0  0  0  0  0  0  0  0  0  0  0  0
   18.4443  -21.4856  -11.8524 C   0  0  0  0  0  0  0  0  0  0  0  0
   17.8840  -21.8513  -10.5099 C   0  0  0  0  0  0  0  0  0  0  0  0
   18.2554  -22.6310   -9.2834 C   0  0  0  0  0  0  0  0  0  0  0  0
   19.3847  -23.4599   -8.7469 C   0  0  0  0  0  0  0  0  0  0  0  0
   20.7433  -23.9500   -9.1514 C   0  0  0  0  0  0  0  0  0  0  0  0
   21.6958  -23.8722  -10.3076 C   0  0  0  0  0  0  0  0  0  0  0  0
   21.7963  -23.2628  -11.6746 C   0  0  0  0  0  0  0  0  0  0  0  0
   22.3565  -22.8971  -13.0171 C   0  0  0  0  0  0  0  0  0  0  0  0
   22.4571  -22.2876  -14.3840 C   0  0  0  0  0  0  0  0  0  0  0  0
   23.0173  -21.9219  -15.7265 C   0  0  0  0  0  0  0  0  0  0  0  0
   24.1252  -21.9938  -16.7351 C   0  0  0  0  0  0  0  0  0  0  0  0
   24.9236  -22.8497  -15.7971 C   0  0  0  0  0  0  0  0  0  0  0  0
   23.8158  -22.7779  -14.7884 C   0  0  0  0  0  0  0  0  0  0  0  0
   20.9979  -22.4069  -12.6126 C   0  0  0  0  0  0  0  0  0  0  0  0
   19.6741  -21.7050  -12.6828 C   0  0  0  0  0  0  0  0  0  0  0  0
   19.4892  -20.9831  -13.9846 C   0  0  0  0  0  0  0  0  0  0  0  0
   18.1452  -20.3174  -13.9587 C   0  0  0  0  0  0  0  0  0  0  0  0
   17.4995  -20.6280  -12.6409 C   0  0  0  0  0  0  0  0  0  0  0  0
   19.0270  -20.1801  -15.1643 C   0  0  0  0  0  0  0  0  0  0  0  0
   18.5649  -19.3772  -16.3440 C   0  0  0  0  0  0  0  0  0  0  0  0
   19.9089  -20.0428  -16.3699 C   0  0  0  0  0  0  0  0  0  0  0  0
   20.3809  -19.6238  -17.7306 C   0  0  0  0  0  0  0  0  0  0  0  0
   18.1549  -23.2405   -7.9165 C   0  0  0  0  0  0  0  0  0  0  0  0
   19.0766  -24.0989   -7.1019 C   0  0  0  0  0  0  0  0  0  0  0  0
   19.9982  -24.9574   -6.2874 C   0  0  0  0  0  0  0  0  0  0  0  0
   16.8311  -22.5386   -7.9867 C   0  0  0  0  0  0  0  0  0  0  0  0
   15.0057  -22.7527   -5.6365 C   0  0  0  0  0  0  0  0  0  0  0  0
   13.7376  -22.4759   -4.8848 C   0  0  0  0  0  0  0  0  0  0  0  0
   12.4693  -22.1991   -4.1330 C   0  0  0  0  0  0  0  0  0  0  0  0
   14.2472  -23.2831   -3.7276 O   0  0  0  0  0  0  0  0  0  0  0  0
   18.7691  -25.8105   -3.2369 H   0  0  0  0  0  0  0  0  0  0  0  0
   16.4573  -24.6254   -3.2753 H   0  0  0  0  0  0  0  0  0  0  0  0
   19.4095  -24.9535   -5.6802 H   0  0  0  0  0  0  0  0  0  0  0  0
   18.2531  -23.7950   -6.8807 H   0  0  0  0  0  0  0  0  0  0  0  0
   16.2496  -23.7942   -4.7690 H   0  0  0  0  0  0  0  0  0  0  0  0
   13.3616  -21.4275   -6.6627 H   0  0  0  0  0  0  0  0  0  0  0  0
   13.3735  -20.8597   -7.8509 H   0  0  0  0  0  0  0  0  0  0  0  0
   14.1976  -20.6024   -9.2444 H   0  0  0  0  0  0  0  0  0  0  0  0
   15.3288  -21.1299   -9.3340 H   0  0  0  0  0  0  0  0  0  0  0  0
   15.1380  -20.6532  -10.1219 H   0  0  0  0  0  0  0  0  0  0  0  0
   15.3282  -20.2169  -11.2238 H   0  0  0  0  0  0  0  0  0  0  0  0
   15.9609  -20.1652  -11.9918 H   0  0  0  0  0  0  0  0  0  0  0  0
   17.0462  -20.6331  -12.1569 H   0  0  0  0  0  0  0  0  0  0  0  0
   16.5998  -21.1040  -10.7155 H   0  0  0  0  0  0  0  0  0  0  0  0
   16.6509  -21.6270   -9.6859 H   0  0  0  0  0  0  0  0  0  0  0  0
   16.8975  -22.1449   -8.8712 H   0  0  0  0  0  0  0  0  0  0  0  0
   17.4042  -22.7929   -8.0590 H   0  0  0  0  0  0  0  0  0  0  0  0
   19.3794  -24.1101   -7.3952 H   0  0  0  0  0  0  0  0  0  0  0  0
   20.8176  -24.6318   -7.8173 H   0  0  0  0  0  0  0  0  0  0  0  0
   21.8681  -24.7802   -8.6075 H   0  0  0  0  0  0  0  0  0  0  0  0
   22.5007  -24.7285   -9.3755 H   0  0  0  0  0  0  0  0  0  0  0  0
   23.0553  -24.3666  -10.7044 H   0  0  0  0  0  0  0  0  0  0  0  0
   23.1511  -23.8991  -11.7725 H   0  0  0  0  0  0  0  0  0  0  0  0
   23.6803  -23.5989  -12.9468 H   0  0  0  0  0  0  0  0  0  0  0  0
   21.2538  -21.4868  -14.7850 H   0  0  0  0  0  0  0  0  0  0  0  0
   21.9593  -21.0766  -16.3715 H   0  0  0  0  0  0  0  0  0  0  0  0
   25.2332  -22.0657  -17.7438 H   0  0  0  0  0  0  0  0  0  0  0  0
   23.3268  -21.1379  -17.6731 H   0  0  0  0  0  0  0  0  0  0  0  0
   25.7222  -23.7056  -14.8591 H   0  0  0  0  0  0  0  0  0  0  0  0
   26.0316  -22.9216  -16.8058 H   0  0  0  0  0  0  0  0  0  0  0  0
   24.3003  -23.5860  -13.6213 H   0  0  0  0  0  0  0  0  0  0  0  0
   21.0984  -21.7974  -13.9795 H   0  0  0  0  0  0  0  0  0  0  0  0
   20.1362  -22.5079  -11.5031 H   0  0  0  0  0  0  0  0  0  0  0  0
   20.6974  -21.1733  -14.8529 H   0  0  0  0  0  0  0  0  0  0  0  0
   17.0160  -19.4886  -14.4952 H   0  0  0  0  0  0  0  0  0  0  0  0
   16.3702  -19.7992  -13.1774 H   0  0  0  0  0  0  0  0  0  0  0  0
   16.3024  -20.4523  -11.7543 H   0  0  0  0  0  0  0  0  0  0  0  0
   17.2191  -18.9374  -15.8487 H   0  0  0  0  0  0  0  0  0  0  0  0
   18.4037  -18.6634  -17.6535 H   0  0  0  0  0  0  0  0  0  0  0  0
   21.0890  -20.8539  -15.9233 H   0  0  0  0  0  0  0  0  0  0  0  0
   20.8530  -19.2048  -19.0914 H   0  0  0  0  0  0  0  0  0  0  0  0
   21.6583  -20.3817  -17.5210 H   0  0  0  0  0  0  0  0  0  0  0  0
   19.1707  -18.8204  -18.1047 H   0  0  0  0  0  0  0  0  0  0  0  0
   18.0863  -23.8639   -6.5539 H   0  0  0  0  0  0  0  0  0  0  0  0
   20.1900  -24.1742   -8.1042 H   0  0  0  0  0  0  0  0  0  0  0  0
   18.3210  -24.3353   -5.8279 H   0  0  0  0  0  0  0  0  0  0  0  0
   20.9199  -25.8158   -5.4727 H   0  0  0  0  0  0  0  0  0  0  0  0
   21.1102  -25.0355   -7.2911 H   0  0  0  0  0  0  0  0  0  0  0  0
   18.9912  -24.9841   -5.1759 H   0  0  0  0  0  0  0  0  0  0  0  0
   17.2932  -23.3415   -6.8070 H   0  0  0  0  0  0  0  0  0  0  0  0
   15.5781  -23.5792   -4.5232 H   0  0  0  0  0  0  0  0  0  0  0  0
   13.0771  -21.6410   -5.9415 H   0  0  0  0  0  0  0  0  0  0  0  0
   11.2012  -21.9223   -3.3812 H   0  0  0  0  0  0  0  0  0  0  0  0
   11.9622  -21.3870   -5.2876 H   0  0  0  0  0  0  0  0  0  0  0  0
   12.8182  -22.9714   -2.8953 H   0  0  0  0  0  0  0  0  0  0  0  0
   13.5411  -23.5478   -2.4310 H   0  0  0  0  0  0  0  0  0  0  0  0
  1  2  2  3
  2  3  1  0
  3  4  1  0
  4  5  1  0
  5  6  1  0
  6  7  1  0
  7  8  1  0
  8  9  1  0
  9 10  1  0
 10 11  1  0
 11 12  1  0
 12 13  1  0
 13 14  1  0
 14 15  1  0
 15 16  1  0
 16 17  1  0
 17 18  1  0
 18 19  1  0
 19 20  1  0
 20 21  1  0
 21 22  1  0
 17 23  1  0
 23 24  1  0
 24 25  1  0
 25 26  1  0
 26 27  1  0
 26 28  1  0
 28 29  1  0
 29 30  1  0
 30 31  1  0
 13 32  1  0
 32 33  1  0
 33 34  1  0
 32 35  1  0
  5 36  1  0
 36 37  1  0
 37 38  1  0
 37 39  1  0
 35  4  1  0
 36  4  1  0
 35  7  1  0
 24 10  1  0
 28 25  1  0
 27 10  1  0
 30 28  1  0
 23 16  1  0
 22 18  1  0
 22 19  1  0
  1 40  1  0
  1 41  1  0
  2 42  1  0
  3 43  1  0
  3 44  1  0
  5 45  1  0
  6 46  1  0
  6 47  1  0
  7 48  1  0
  8 49  1  0
  8 50  1  0
  9 51  1  0
  9 52  1  0
 11 53  1  0
 11 54  1  0
 12 55  1  0
 12 56  1  0
 13 57  1  0
 14 58  1  0
 14 59  1  0
 15 60  1  0
 15 61  1  0
 16 62  1  0
 17 63  1  0
 18 64  1  0
 19 65  1  0
 20 66  1  0
 20 67  1  0
 21 68  1  0
 21 69  1  0
 22 70  1  0
 23 71  1  0
 24 72  1  0
 25 73  1  0
 26 74  1  0
 27 75  1  0
 27 76  1  0
 29 77  1  0
 29 78  1  0
 30 79  1  0
 31 80  1  0
 31 81  1  0
 31 82  1  0
 32 83  1  0
 33 84  1  0
 33 85  1  0
 34 86  1  0
 34 87  1  0
 34 88  1  0
 35 89  1  0
 36 90  1  0
 37 91  1  0
 38 92  1  0
 38 93  1  0
 38 94  1  0
 39 95  1  0
M  END
