
     RDKit          2D

 35 38  0  0  0  0  0  0  0  0999 V2000
   18.2815  -20.6173  -14.4737 C   0  0  0  0  0  0  0  0  0  0  0  0
   17.6350  -20.9787  -13.1694 C   0  0  0  0  0  0  0  0  0  0  0  0
   16.9885  -21.3401  -11.8649 N   0  0  0  0  0  0  0  0  0  0  0  0
   17.6184  -20.9137  -10.5721 C   0  0  0  0  0  0  0  0  0  0  0  0
   18.6035  -20.0731  -11.3293 C   0  0  0  0  0  0  0  0  0  0  0  0
   19.7441  -19.1370  -11.5986 C   0  0  0  0  0  0  0  0  0  0  0  0
   19.3936  -19.5056  -10.1876 C   0  0  0  0  0  0  0  0  0  0  0  0
   16.6334  -21.7541   -9.8149 C   0  0  0  0  0  0  0  0  0  0  0  0
   15.5393  -22.6652   -9.3430 O   0  0  0  0  0  0  0  0  0  0  0  0
   15.5911  -22.7148   -7.8448 C   0  0  0  0  0  0  0  0  0  0  0  0
   15.2798  -23.0529   -6.4169 N   0  0  0  0  0  0  0  0  0  0  0  0
   16.4060  -22.1725   -5.9628 C   0  0  0  0  0  0  0  0  0  0  0  0
   17.7717  -20.9966   -7.1861 C   0  0  0  0  0  0  0  0  0  0  0  0
   17.3616  -21.2406   -8.6083 C   0  0  0  0  0  0  0  0  0  0  0  0
   16.7174  -21.8343   -7.3906 S   0  0  0  0  0  4  0  0  0  0  0  0
   18.9280  -20.2559  -15.7781 H   0  0  0  0  0  0  0  0  0  0  0  0
   19.2773  -19.7652  -13.7441 H   0  0  0  0  0  0  0  0  0  0  0  0
   17.2857  -21.4693  -15.2034 H   0  0  0  0  0  0  0  0  0  0  0  0
   16.5350  -21.6807  -13.9090 H   0  0  0  0  0  0  0  0  0  0  0  0
   18.2571  -20.5850  -12.8636 H   0  0  0  0  0  0  0  0  0  0  0  0
   15.7229  -22.1267  -12.0362 H   0  0  0  0  0  0  0  0  0  0  0  0
   18.2483  -20.4872   -9.2793 H   0  0  0  0  0  0  0  0  0  0  0  0
   18.4370  -20.1601  -12.1040 H   0  0  0  0  0  0  0  0  0  0  0  0
   19.6922  -19.0874  -13.0969 H   0  0  0  0  0  0  0  0  0  0  0  0
   20.9027  -18.2180  -11.3476 H   0  0  0  0  0  0  0  0  0  0  0  0
   20.4305  -18.7147   -9.4465 H   0  0  0  0  0  0  0  0  0  0  0  0
   18.9286  -19.9631   -8.8367 H   0  0  0  0  0  0  0  0  0  0  0  0
   15.9877  -22.1967  -11.0943 H   0  0  0  0  0  0  0  0  0  0  0  0
   14.4300  -23.6373   -8.0700 H   0  0  0  0  0  0  0  0  0  0  0  0
   14.2632  -23.9147   -5.7285 H   0  0  0  0  0  0  0  0  0  0  0  0
   16.9823  -21.7890   -4.6321 H   0  0  0  0  0  0  0  0  0  0  0  0
   18.8659  -20.0855   -7.6580 H   0  0  0  0  0  0  0  0  0  0  0  0
   18.1818  -20.7526   -5.7641 H   0  0  0  0  0  0  0  0  0  0  0  0
   18.5068  -20.3387   -8.2548 H   0  0  0  0  0  0  0  0  0  0  0  0
   17.8665  -20.9277   -7.0628 H   0  0  0  0  0  0  0  0  0  0  0  0
  1  2  1  0
  2  3  1  0
  3  4  1  0
  4  5  1  0
  5  6  1  0
  6  7  1  0
  4  8  1  0
  8  9  1  0
  9 10  1  0
 10 11  1  0
 11 12  1  0
 12 13  1  0
 13 14  1  0
 14 15  1  0
  7  5  1  0
 14  8  1  0
 15 10  1  0
 15 12  1  0
  1 16  1  0
  1 17  1  0
  1 18  1  0
  2 19  1  0
  2 20  1  0
  3 21  1  0
  4 22  1  0
  5 23  1  0
  6 24  1  0
  6 25  1  0
  7 26  1  0
  7 27  1  0
  8 28  1  0
 10 29  1  0
 11 30  1  0
 12 31  1  0
 13 32  1  0
 13 33  1  0
 14 34  1  0
 15 35  1  0
M  END
