
     RDKit          2D

 80 87  0  0  0  0  0  0  0  0999 V2000
      -nan      -nan      -nan C   0  0  0  0  0  0  0  0  0  0  0  0
      -nan      -nan      -nan C   0  0  0  0  0  0  0  0  0  0  0  0
      -nan      -nan      -nan C   0  0  0  0  0  0  0  0  0  0  0  0
      -nan      -nan      -nan C   0  0  0  0  0  0  0  0  0  0  0  0
      -nan      -nan      -nan C   0  0  0  0  0  0  0  0  0  0  0  0
      -nan      -nan      -nan C   0  0  0  0  0  0  0  0  0  0  0  0
      -nan      -nan      -nan C   0  0  0  0  0  0  0  0  0  0  0  0
      -nan      -nan      -nan C   0  0  0  0  0  0  0  0  0  0  0  0
      -nan      -nan      -nan C   0  0  0  0  0  0  0  0  0  0  0  0
      -nan      -nan      -nan C   0  0  0  0  0  0  0  0  0  0  0  0
      -nan      -nan      -nan C   0  0  0  0  0  0  0  0  0  0  0  0
      -nan      -nan      -nan N   0  0  0  0  0  0  0  0  0  0  0  0
      -nan      -nan      -nan C   0  0  0  0  0  0  0  0  0  0  0  0
      -nan      -nan      -nan C   0  0  0  0  0  0  0  0  0  0  0  0
      -nan      -nan      -nan C   0  0  0  0  0  0  0  0  0  0  0  0
      -nan      -nan      -nan C   0  0  0  0  0  0  0  0  0  0  0  0
      -nan      -nan      -nan C   0  0  0  0  0  0  0  0  0  0  0  0
      -nan      -nan      -nan C   0  0  0  0  0  0  0  0  0  0  0  0
      -nan      -nan      -nan C   0  0  0  0  0  0  0  0  0  0  0  0
      -nan      -nan      -nan C   0  0  0  0  0  0  0  0  0  0  0  0
      -nan      -nan      -nan C   0  0  0  0  0  0  0  0  0  0  0  0
      -nan      -nan      -nan C   0  0  0  0  0  0  0  0  0  0  0  0
      -nan      -nan      -nan C   0  0  0  0  0  0  0  0  0  0  0  0
      -nan      -nan      -nan C   0  0  0  0  0  0  0  0  0  0  0  0
      -nan      -nan      -nan C   0  0  0  0  0  0  0  0  0  0  0  0
      -nan      -nan      -nan C   0  0  0  0  0  0  0  0  0  0  0  0
      -nan      -nan      -nan C   0  0  0  0  0  0  0  0  0  0  0  0
      -nan      -nan      -nan C   0  0  0  0  0  0  0  0  0  0  0  0
      -nan      -nan      -nan C   0  0  0  0  0  0  0  0  0  0  0  0
      -nan      -nan      -nan C   0  0  0  0  0  0  0  0  0  0  0  0
      -nan      -nan      -nan C   0  0  0  0  0  0  0  0  0  0  0  0
      -nan      -nan      -nan C   0  0  0  0  0  0  0  0  0  0  0  0
      -nan      -nan      -nan C   0  0  0  0  0  0  0  0  0  0  0  0
      -nan      -nan      -nan H   0  0  0  0  0  0  0  0  0  0  0  0
      -nan      -nan      -nan H   0  0  0  0  0  0  0  0  0  0  0  0
      -nan      -nan      -nan H   0  0  0  0  0  0  0  0  0  0  0  0
      -nan      -nan      -nan H   0  0  0  0  0  0  0  0  0  0  0  0
      -nan      -nan      -nan H   0  0  0  0  0  0  0  0  0  0  0  0
      -nan      -nan      -nan H   0  0  0  0  0  0  0  0  0  0  0  0
      -nan      -nan      -nan H   0  0  0  0  0  0  0  0  0  0  0  0
      -nan      -nan      -nan H   0  0  0  0  0  0  0  0  0  0  0  0
      -nan      -nan      -nan H   0  0  0  0  0  0  0  0  0  0  0  0
      -nan      -nan      -nan H   0  0  0  0  0  0  0  0  0  0  0  0
      -nan      -nan      -nan H   0  0  0  0  0  0  0  0  0  0  0  0
      -nan      -nan      -nan H   0  0  0  0  0  0  0  0  0  0  0  0
      -nan      -nan      -nan H   0  0  0  0  0  0  0  0  0  0  0  0
      -nan      -nan      -nan H   0  0  0  0  0  0  0  0  0  0  0  0
      -nan      -nan      -nan H   0  0  0  0  0  0  0  0  0  0  0  0
      -nan      -nan      -nan H   0  0  0  0  0  0  0  0  0  0  0  0
      -nan      -nan      -nan H   0  0  0  0  0  0  0  0  0  0  0  0
      -nan      -nan      -nan H   0  0  0  0  0  0  0  0  0  0  0  0
      -nan      -nan      -nan H   0  0  0  0  0  0  0  0  0  0  0  0
      -nan      -nan      -nan H   0  0  0  0  0  0  0  0  0  0  0  0
      -nan      -nan      -nan H   0  0  0  0  0  0  0  0  0  0  0  0
      -nan      -nan      -nan H   0  0  0  0  0  0  0  0  0  0  0  0
      -nan      -nan      -nan H   0  0  0  0  0  0  0  0  0  0  0  0
      -nan      -nan      -nan H   0  0  0  0  0  0  0  0  0  0  0  0
      -nan      -nan      -nan H   0  0  0  0  0  0  0  0  0  0  0  0
      -nan      -nan      -nan H   0  0  0  0  0  0  0  0  0  0  0  0
      -nan      -nan      -nan H   0  0  0  0  0  0  0  0  0  0  0  0
      -nan      -nan      -nan H   0  0  0  0  0  0  0  0  0  0  0  0
      -nan      -nan      -nan H   0  0  0  0  0  0  0  0  0  0  0  0
      -nan      -nan      -nan H   0  0  0  0  0  0  0  0  0  0  0  0
      -nan      -nan      -nan H   0  0  0  0  0  0  0  0  0  0  0  0
      -nan      -nan      -nan H   0  0  0  0  0  0  0  0  0  0  0  0
      -nan      -nan      -nan H   0  0  0  0  0  0  0  0  0  0  0  0
      -nan      -nan      -nan H   0  0  0  0  0  0  0  0  0  0  0  0
      -nan      -nan      -nan H   0  0  0  0  0  0  0  0  0  0  0  0
      -nan      -nan      -nan H   0  0  0  0  0  0  0  0  0  0  0  0
      -nan      -nan      -nan H   0  0  0  0  0  0  0  0  0  0  0  0
      -nan      -nan      -nan H   0  0  0  0  0  0  0  0  0  0  0  0
      -nan      -nan      -nan H   0  0  0  0  0  0  0  0  0  0  0  0
      -nan      -nan      -nan H   0  0  0  0  0  0  0  0  0  0  0  0
      -nan      -nan      -nan H   0  0  0  0  0  0  0  0  0  0  0  0
      -nan      -nan      -nan H   0  0  0  0  0  0  0  0  0  0  0  0
      -nan      -nan      -nan H   0  0  0  0  0  0  0  0  0  0  0  0
      -nan      -nan      -nan H   0  0  0  0  0  0  0  0  0  0  0  0
      -nan      -nan      -nan H   0  0  0  0  0  0  0  0  0  0  0  0
      -nan      -nan      -nan H   0  0  0  0  0  0  0  0  0  0  0  0
      -nan      -nan      -nan H   0  0  0  0  0  0  0  0  0  0  0  0
  1  2  1  0
  2  3  1  0
  3  4  1  0
  4  5  1  0
  5  6  1  0
  6  7  1  0
  7  8  1  0
  8  9  1  0
  9 10  1  0
 10 11  2  0
 11 12  1  0
 12 13  1  0
 12 14  1  0
  7 15  1  0
 15 16  1  0
  5 17  1  0
 17 18  1  0
 18 19  1  0
 19 20  1  0
 20 21  1  0
 21 22  1  1
 22 23  1  0
 23 24  1  0
  2 25  1  0
 25 26  1  0
 26 27  1  0
 26 28  1  0
 28 29  2  3
 29 30  1  0
 30 31  1  0
 31 32  1  0
 32 33  1  0
 16  7  1  0
 19 17  1  0
 24 21  1  0
 32 30  1  0
 14  9  1  0
 17 21  1  6
 24 22  1  0
 20 18  1  0
  1 34  1  0
  1 35  1  0
  1 36  1  0
  2 37  1  1
  3 38  1  0
  3 39  1  0
  4 40  1  0
  4 41  1  0
  5 42  1  6
  6 43  1  0
  6 44  1  0
  8 45  1  0
  8 46  1  0
  9 47  1  6
 10 48  1  0
 11 49  1  0
 13 50  1  0
 13 51  1  0
 13 52  1  0
 14 53  1  0
 14 54  1  0
 15 55  1  0
 15 56  1  0
 16 57  1  0
 16 58  1  0
 18 59  1  6
 19 60  1  1
 20 61  1  6
 22 62  1  1
 23 63  1  0
 23 64  1  0
 24 65  1  1
 25 66  1  0
 25 67  1  0
 26 68  1  1
 27 69  1  0
 27 70  1  0
 27 71  1  0
 28 72  1  0
 29 73  1  0
 30 74  1  1
 31 75  1  0
 31 76  1  0
 32 77  1  1
 33 78  1  0
 33 79  1  0
 33 80  1  0
M  END
