
     RDKit          2D

 29 32  0  0  0  0  0  0  0  0999 V2000
   -5.6289   26.3657    5.0495 C   0  0  0  0  0  0  0  0  0  0  0  0
   -4.6789   25.6492    5.9628 C   0  0  0  0  0  0  0  0  0  0  0  0
   -3.4250   25.0381    5.4111 C   0  0  0  0  0  0  0  0  0  0  0  0
   -2.1712   24.4271    4.8592 C   0  0  0  0  0  0  0  0  0  0  0  0
   -0.9174   23.8160    4.3074 C   0  0  0  0  0  0  0  0  0  0  0  0
   -0.3322   23.2426    5.5639 C   0  0  0  0  0  0  0  0  0  0  0  0
    0.9736   22.5061    5.5150 C   0  0  0  0  0  0  0  0  0  0  0  0
    1.6943   22.3430    4.2096 C   0  0  0  0  0  0  0  0  0  0  0  0
    0.3885   23.0795    4.2585 C   0  0  0  0  0  0  0  0  0  0  0  0
   -4.9827   25.5438    7.4279 C   0  0  0  0  0  0  0  0  0  0  0  0
   -5.7034   25.7069    8.7333 C   0  0  0  0  0  0  0  0  0  0  0  0
   -6.2885   26.2803    7.4768 C   0  0  0  0  0  0  0  0  0  0  0  0
   -7.5423   26.8913    8.0286 O   0  0  0  0  0  0  0  0  0  0  0  0
   -5.3250   26.4711    3.5844 H   0  0  0  0  0  0  0  0  0  0  0  0
   -6.6737   26.9038    5.3576 H   0  0  0  0  0  0  0  0  0  0  0  0
   -3.7980   25.5129    4.0378 H   0  0  0  0  0  0  0  0  0  0  0  0
   -3.0520   24.5634    6.7841 H   0  0  0  0  0  0  0  0  0  0  0  0
   -1.7984   23.9521    6.2322 H   0  0  0  0  0  0  0  0  0  0  0  0
   -2.5440   24.9021    3.4861 H   0  0  0  0  0  0  0  0  0  0  0  0
   -1.0670   24.1772    2.8592 H   0  0  0  0  0  0  0  0  0  0  0  0
   -1.0529   23.4057    6.8693 H   0  0  0  0  0  0  0  0  0  0  0  0
    1.5588   21.9327    6.7715 H   0  0  0  0  0  0  0  0  0  0  0  0
    2.8946   21.5699    4.6696 H   0  0  0  0  0  0  0  0  0  0  0  0
    1.9981   22.4484    2.7445 H   0  0  0  0  0  0  0  0  0  0  0  0
   -3.7824   24.7707    7.8879 H   0  0  0  0  0  0  0  0  0  0  0  0
   -4.7534   24.9904    9.6466 H   0  0  0  0  0  0  0  0  0  0  0  0
   -6.7540   26.1188    9.7215 H   0  0  0  0  0  0  0  0  0  0  0  0
   -6.5371   26.6382    6.3427 H   0  0  0  0  0  0  0  0  0  0  0  0
   -8.4923   27.6078    7.1153 H   0  0  0  0  0  0  0  0  0  0  0  0
  1  2  2  3
  2  3  1  0
  3  4  1  0
  4  5  1  0
  5  6  1  0
  6  7  1  0
  7  8  1  0
  8  9  1  0
  2 10  1  0
 10 11  1  0
 11 12  1  0
 12 13  1  0
  9  5  1  0
 12 10  1  0
  9  6  1  0
  9  7  1  0
  1 14  1  0
  1 15  1  0
  3 16  1  0
  3 17  1  0
  4 18  1  0
  4 19  1  0
  5 20  1  0
  6 21  1  0
  7 22  1  0
  8 23  1  0
  8 24  1  0
 10 25  1  0
 11 26  1  0
 11 27  1  0
 12 28  1  0
 13 29  1  0
M  END
