
     RDKit          2D

 48 51  0  0  0  0  0  0  0  0999 V2000
   15.8666  -25.5653   -4.8973 C   0  0  0  0  0  0  0  0  0  0  0  0
   15.1718  -24.3549   -4.3478 C   0  0  0  0  0  0  0  0  0  0  0  0
   14.8233  -22.9976   -4.8829 C   0  0  0  0  0  0  0  0  0  0  0  0
   15.4576  -23.3521   -6.1952 C   0  0  0  0  0  0  0  0  0  0  0  0
   15.7798  -21.9060   -6.4300 Cl  0  0  0  0  0  0  0  0  0  0  0  0
   16.0918  -23.7065   -7.5075 C   0  0  0  0  0  0  0  0  0  0  0  0
   15.8842  -25.1921   -7.5043 C   0  0  0  0  0  0  0  0  0  0  0  0
   16.5198  -22.3440   -7.9663 C   0  0  0  0  0  0  0  0  0  0  0  0
   17.2261  -22.1826   -9.2797 C   0  0  0  0  0  0  0  0  0  0  0  0
   17.4338  -20.6971   -9.2829 C   0  0  0  0  0  0  0  0  0  0  0  0
   17.6415  -19.2115   -9.2861 O   0  0  0  0  0  0  0  0  0  0  0  0
   17.1558  -18.3839   -8.1332 C   0  0  0  0  0  0  0  0  0  0  0  0
   17.8604  -22.5371  -10.5920 C   0  0  0  0  0  0  0  0  0  0  0  0
   18.4947  -22.8916  -11.9043 C   0  0  0  0  0  0  0  0  0  0  0  0
   18.1816  -21.0910  -10.8273 C   0  0  0  0  0  0  0  0  0  0  0  0
   16.7982  -23.5451   -8.8208 C   0  0  0  0  0  0  0  0  0  0  0  0
   17.0766  -24.7461   -9.6752 C   0  0  0  0  0  0  0  0  0  0  0  0
   14.1891  -22.6431   -3.5706 C   0  0  0  0  0  0  0  0  0  0  0  0
   14.5375  -24.0004   -3.0355 C   0  0  0  0  0  0  0  0  0  0  0  0
   14.0151  -24.0093   -1.6295 C   0  0  0  0  0  0  0  0  0  0  0  0
   14.7099  -25.2197   -2.1791 O   0  0  0  0  0  0  0  0  0  0  0  0
   16.1098  -25.4697   -5.6506 H   0  0  0  0  0  0  0  0  0  0  0  0
   16.0391  -26.7846   -4.0409 H   0  0  0  0  0  0  0  0  0  0  0  0
   14.4748  -21.6403   -5.4179 H   0  0  0  0  0  0  0  0  0  0  0  0
   15.0604  -24.7441   -5.8021 H   0  0  0  0  0  0  0  0  0  0  0  0
   15.6765  -26.6776   -7.5011 H   0  0  0  0  0  0  0  0  0  0  0  0
   16.5351  -25.4705   -8.8267 H   0  0  0  0  0  0  0  0  0  0  0  0
   15.5221  -25.1400   -6.7960 H   0  0  0  0  0  0  0  0  0  0  0  0
   16.2413  -21.1431   -7.1119 H   0  0  0  0  0  0  0  0  0  0  0  0
   18.4929  -20.4809  -10.3229 H   0  0  0  0  0  0  0  0  0  0  0  0
   16.3941  -20.5494   -8.2119 H   0  0  0  0  0  0  0  0  0  0  0  0
   16.6702  -17.5562   -6.9803 H   0  0  0  0  0  0  0  0  0  0  0  0
   18.2606  -17.3985   -8.3752 H   0  0  0  0  0  0  0  0  0  0  0  0
   16.0511  -19.3693   -7.8912 H   0  0  0  0  0  0  0  0  0  0  0  0
   17.6188  -24.0157  -10.5184 H   0  0  0  0  0  0  0  0  0  0  0  0
   19.1289  -23.2461  -13.2165 H   0  0  0  0  0  0  0  0  0  0  0  0
   18.3427  -24.3491  -11.5841 H   0  0  0  0  0  0  0  0  0  0  0  0
   18.7228  -21.4882  -12.3821 H   0  0  0  0  0  0  0  0  0  0  0  0
   18.5029  -19.6448  -11.0627 H   0  0  0  0  0  0  0  0  0  0  0  0
   18.8316  -21.2639  -12.1682 H   0  0  0  0  0  0  0  0  0  0  0  0
   17.6624  -20.3996   -9.6016 H   0  0  0  0  0  0  0  0  0  0  0  0
   17.3551  -25.9471  -10.5297 H   0  0  0  0  0  0  0  0  0  0  0  0
   17.7672  -24.0201  -10.7916 H   0  0  0  0  0  0  0  0  0  0  0  0
   16.4540  -25.7648   -8.7673 H   0  0  0  0  0  0  0  0  0  0  0  0
   13.8406  -21.2858   -4.1057 H   0  0  0  0  0  0  0  0  0  0  0  0
   13.5171  -22.1258   -2.3334 H   0  0  0  0  0  0  0  0  0  0  0  0
   13.3834  -22.6704   -1.3878 H   0  0  0  0  0  0  0  0  0  0  0  0
   13.6954  -24.4975   -0.2476 H   0  0  0  0  0  0  0  0  0  0  0  0
  1  2  2  3
  2  3  1  0
  3  4  1  0
  4  5  1  0
  4  6  1  0
  6  7  1  0
  6  8  1  0
  8  9  1  0
  9 10  1  0
 10 11  1  0
 11 12  1  0
  9 13  1  0
 13 14  1  0
 13 15  1  0
  9 16  1  0
 16 17  1  0
  3 18  1  0
 18 19  1  0
 19 20  1  0
 20 21  1  0
 19  2  1  0
 16  6  1  0
 21 19  1  0
 16  8  1  0
  1 22  1  0
  1 23  1  0
  3 24  1  0
  4 25  1  0
  7 26  1  0
  7 27  1  0
  7 28  1  0
  8 29  1  0
 10 30  1  0
 10 31  1  0
 12 32  1  0
 12 33  1  0
 12 34  1  0
 13 35  1  0
 14 36  1  0
 14 37  1  0
 14 38  1  0
 15 39  1  0
 15 40  1  0
 15 41  1  0
 17 42  1  0
 17 43  1  0
 17 44  1  0
 18 45  1  0
 18 46  1  0
 20 47  1  0
 20 48  1  0
M  END
