
     RDKit          2D

 54 56  0  0  0  0  0  0  0  0999 V2000
    0.4213   30.4488    0.5634 C   0  0  0  0  0  0  0  0  0  0  0  0
   -0.5212   30.2392    1.7113 C   0  0  0  0  0  0  0  0  0  0  0  0
   -0.5916   28.9031    2.3895 C   0  0  0  0  0  0  0  0  0  0  0  0
   -0.6620   27.5671    3.0677 C   0  0  0  0  0  0  0  0  0  0  0  0
   -1.7200   27.2792    2.0441 C   0  0  0  0  0  0  0  0  0  0  0  0
    0.4107   28.1343    3.9496 C   0  0  0  0  0  0  0  0  0  0  0  0
    1.4512   28.9559    4.6511 C   0  0  0  0  0  0  0  0  0  0  0  0
    0.7821   27.0885    4.9588 C   0  0  0  0  0  0  0  0  0  0  0  0
    1.3547   26.2603    6.0705 P   0  0  0  0  0  0  0  0  0  0  0  0
    2.4275   26.8275    6.9524 P   0  0  0  0  0  0  0  0  0  0  0  0
    3.0002   25.9993    8.0642 C   0  0  0  0  0  0  0  0  0  0  0  0
   -0.0611   25.8751    4.7007 C   0  0  0  0  0  0  0  0  0  0  0  0
    0.5116   25.0468    5.8125 N   0  0  0  0  0  0  0  0  0  0  0  0
    1.4616   24.8961    6.9635 C   0  0  0  0  0  0  0  0  0  0  0  0
    0.5536   23.7631    6.5871 C   0  0  0  0  0  0  0  0  0  0  0  0
    0.9599   22.7506    7.6167 C   0  0  0  0  0  0  0  0  0  0  0  0
    1.3662   21.7382    8.6462 C   0  0  0  0  0  0  0  0  0  0  0  0
    1.7726   20.7258    9.6757 C   0  0  0  0  0  0  0  0  0  0  0  0
    2.1789   19.7134   10.7052 C   0  0  0  0  0  0  0  0  0  0  0  0
    2.5852   18.7010   11.7348 N   0  0  0  0  0  0  0  0  0  0  0  0
    1.1834   18.7423   10.1431 O   0  0  0  0  0  0  0  0  0  0  0  0
   -1.0240   24.8348    4.2102 C   0  0  0  0  0  0  0  0  0  0  0  0
   -0.9536   26.1708    3.5320 N   0  0  0  0  0  0  0  0  0  0  0  0
    0.4917   31.7849   -0.1148 H   0  0  0  0  0  0  0  0  0  0  0  0
    1.2934   29.3223    0.0937 H   0  0  0  0  0  0  0  0  0  0  0  0
   -1.3933   31.3656    2.1810 H   0  0  0  0  0  0  0  0  0  0  0  0
   -1.1487   28.7613    1.8373 H   0  0  0  0  0  0  0  0  0  0  0  0
    0.4739   29.4958    3.2633 H   0  0  0  0  0  0  0  0  0  0  0  0
   -2.7780   26.9914    1.0204 H   0  0  0  0  0  0  0  0  0  0  0  0
   -1.6922   27.9850    1.6745 H   0  0  0  0  0  0  0  0  0  0  0  0
   -1.9026   25.9059    2.6191 H   0  0  0  0  0  0  0  0  0  0  0  0
    0.3875   29.4277    3.1905 H   0  0  0  0  0  0  0  0  0  0  0  0
    2.4917   29.7776    5.3526 H   0  0  0  0  0  0  0  0  0  0  0  0
    1.2214   30.0759    3.6801 H   0  0  0  0  0  0  0  0  0  0  0  0
    1.8061   27.9445    5.7003 H   0  0  0  0  0  0  0  0  0  0  0  0
    1.7956   28.0062    5.5757 H   0  0  0  0  0  0  0  0  0  0  0  0
    1.0995   24.8699    6.5722 H   0  0  0  0  0  0  0  0  0  0  0  0
    4.0728   26.5664    8.9460 H   0  0  0  0  0  0  0  0  0  0  0  0
    2.6197   24.5959    8.4328 H   0  0  0  0  0  0  0  0  0  0  0  0
    2.3048   26.1096    7.2217 H   0  0  0  0  0  0  0  0  0  0  0  0
    2.1832   24.2772    8.1237 H   0  0  0  0  0  0  0  0  0  0  0  0
   -0.4955   22.9816    5.8532 H   0  0  0  0  0  0  0  0  0  0  0  0
   -0.0343   21.7788    7.0535 H   0  0  0  0  0  0  0  0  0  0  0  0
    1.9963   23.5917    8.3012 H   0  0  0  0  0  0  0  0  0  0  0  0
    0.3691   20.7679    8.0856 H   0  0  0  0  0  0  0  0  0  0  0  0
    2.3634   22.7085    9.2068 H   0  0  0  0  0  0  0  0  0  0  0  0
    2.7667   21.6977   10.2391 H   0  0  0  0  0  0  0  0  0  0  0  0
    0.7785   19.7540    9.1124 H   0  0  0  0  0  0  0  0  0  0  0  0
    3.1744   20.6846   11.2673 H   0  0  0  0  0  0  0  0  0  0  0  0
    1.9278   17.3530   11.7614 H   0  0  0  0  0  0  0  0  0  0  0  0
    3.6489   19.0367   12.7377 H   0  0  0  0  0  0  0  0  0  0  0  0
    1.0371   17.3802   10.7542 H   0  0  0  0  0  0  0  0  0  0  0  0
   -0.7237   23.7263    5.1752 H   0  0  0  0  0  0  0  0  0  0  0  0
   -2.0911   24.1794    3.3845 H   0  0  0  0  0  0  0  0  0  0  0  0
  1  2  2  3
  2  3  1  0
  3  4  1  0
  4  5  1  0
  4  6  1  0
  6  7  1  0
  6  8  1  0
  8  9  1  0
  9 10  1  0
 10 11  2  3
  8 12  1  0
 12 13  1  0
 13 14  1  0
 14 15  1  0
 15 16  1  0
 16 17  1  0
 17 18  1  0
 18 19  1  0
 19 20  1  0
 19 21  1  0
 12 22  1  0
 22 23  1  0
 23  4  1  0
 23 12  1  0
 15 13  1  0
  1 24  1  0
  1 25  1  0
  2 26  1  0
  3 27  1  0
  3 28  1  0
  5 29  1  0
  5 30  1  0
  5 31  1  0
  6 32  1  0
  7 33  1  0
  7 34  1  0
  7 35  1  0
  8 36  1  0
  9 37  1  0
 11 38  1  0
 11 39  1  0
 14 40  1  0
 14 41  1  0
 15 42  1  0
 16 43  1  0
 16 44  1  0
 17 45  1  0
 17 46  1  0
 18 47  1  0
 18 48  1  0
 19 49  1  0
 20 50  1  0
 20 51  1  0
 21 52  1  0
 22 53  1  0
 22 54  1  0
M  END
