
     RDKit          2D

 41 44  0  0  0  0  0  0  0  0999 V2000
   20.9918  -21.9350   -6.6778 O   0  0  0  0  0  0  0  0  0  0  0  0
   19.5869  -22.4301   -6.8548 C   0  0  0  0  0  0  0  0  0  0  0  0
   18.9251  -21.1710   -7.3309 C   0  0  0  0  0  0  0  0  0  0  0  0
   18.4658  -19.8180   -7.7875 C   0  0  0  0  0  0  0  0  0  0  0  0
   17.0898  -19.3879   -8.2016 C   0  0  0  0  0  0  0  0  0  0  0  0
   15.8051  -18.7558   -8.6490 C   0  0  0  0  0  0  0  0  0  0  0  0
   15.8331  -20.2047   -8.2616 C   0  0  0  0  0  0  0  0  0  0  0  0
   15.6421  -21.6533   -7.9222 C   0  0  0  0  0  0  0  0  0  0  0  0
   14.2661  -21.2232   -8.3363 C   0  0  0  0  0  0  0  0  0  0  0  0
   14.1285  -19.7864   -8.7446 C   0  0  0  0  0  0  0  0  0  0  0  0
   12.9004  -19.0584   -9.2048 C   0  0  0  0  0  0  0  0  0  0  0  0
   11.5066  -19.5873   -9.3705 C   0  0  0  0  0  0  0  0  0  0  0  0
   10.9967  -20.9750   -9.1168 C   0  0  0  0  0  0  0  0  0  0  0  0
   11.7544  -22.1764   -8.6349 C   0  0  0  0  0  0  0  0  0  0  0  0
   13.2096  -22.2869   -8.2875 C   0  0  0  0  0  0  0  0  0  0  0  0
   16.6606  -22.6427   -7.4390 C   0  0  0  0  0  0  0  0  0  0  0  0
   18.1217  -22.4282   -7.1758 C   0  0  0  0  0  0  0  0  0  0  0  0
   22.0616  -22.8703   -6.1976 H   0  0  0  0  0  0  0  0  0  0  0  0
   19.7608  -23.8611   -6.4402 H   0  0  0  0  0  0  0  0  0  0  0  0
   20.2807  -20.5424   -7.1998 H   0  0  0  0  0  0  0  0  0  0  0  0
   19.9270  -19.6033   -7.5243 H   0  0  0  0  0  0  0  0  0  0  0  0
   18.6569  -18.3694   -8.1269 H   0  0  0  0  0  0  0  0  0  0  0  0
   17.7012  -18.0363   -8.4236 H   0  0  0  0  0  0  0  0  0  0  0  0
   16.2807  -17.3579   -8.9129 H   0  0  0  0  0  0  0  0  0  0  0  0
   14.8792  -18.5448   -8.9071 H   0  0  0  0  0  0  0  0  0  0  0  0
   14.9133  -19.9728   -8.5238 H   0  0  0  0  0  0  0  0  0  0  0  0
   14.8386  -22.9104   -7.7671 H   0  0  0  0  0  0  0  0  0  0  0  0
   14.6790  -19.2107   -8.7756 H   0  0  0  0  0  0  0  0  0  0  0  0
   13.8250  -17.8820   -9.3121 H   0  0  0  0  0  0  0  0  0  0  0  0
   12.3014  -17.7664   -9.6758 H   0  0  0  0  0  0  0  0  0  0  0  0
   11.1920  -18.1874   -9.8077 H   0  0  0  0  0  0  0  0  0  0  0  0
   10.0857  -19.3012   -9.7566 H   0  0  0  0  0  0  0  0  0  0  0  0
    9.6798  -20.4057   -9.5547 H   0  0  0  0  0  0  0  0  0  0  0  0
    9.8238  -21.9101   -9.1273 H   0  0  0  0  0  0  0  0  0  0  0  0
   10.4270  -22.8664   -8.7437 H   0  0  0  0  0  0  0  0  0  0  0  0
   11.7129  -23.6287   -8.2618 H   0  0  0  0  0  0  0  0  0  0  0  0
   12.8711  -23.7166   -7.9853 H   0  0  0  0  0  0  0  0  0  0  0  0
   14.3305  -23.1628   -7.8118 H   0  0  0  0  0  0  0  0  0  0  0  0
   15.5057  -23.5999   -7.4397 H   0  0  0  0  0  0  0  0  0  0  0  0
   17.1198  -23.9959   -6.9824 H   0  0  0  0  0  0  0  0  0  0  0  0
   18.1497  -23.8770   -6.7884 H   0  0  0  0  0  0  0  0  0  0  0  0
  1  2  1  0
  2  3  1  0
  3  4  1  0
  4  5  1  0
  5  6  1  0
  6  7  1  0
  7  8  1  0
  8  9  1  0
  9 10  2  0
 10 11  1  0
 11 12  1  0
 12 13  1  0
 13 14  1  0
 14 15  1  0
  8 16  1  0
 16 17  1  0
 17  2  1  0
 17  3  1  0
  7  5  1  0
 15  9  1  0
  1 18  1  0
  2 19  1  0
  3 20  1  0
  4 21  1  0
  4 22  1  0
  5 23  1  0
  6 24  1  0
  6 25  1  0
  7 26  1  0
  8 27  1  0
 10 28  1  0
 11 29  1  0
 11 30  1  0
 12 31  1  0
 12 32  1  0
 13 33  1  0
 13 34  1  0
 14 35  1  0
 14 36  1  0
 15 37  1  0
 15 38  1  0
 16 39  1  0
 16 40  1  0
 17 41  1  0
M  END
