
     RDKit          2D

 35 37  0  0  0  0  0  0  0  0999 V2000
   -0.1510   25.9377    0.4068 O   0  0  0  0  0  0  0  0  0  0  0  0
   -0.5166   26.5299    1.7356 C   0  0  0  0  0  0  0  0  0  0  0  0
   -1.1819   27.7956    1.2825 O   0  0  0  0  0  0  0  0  0  0  0  0
   -1.0691   27.4902    2.7468 C   0  0  0  0  0  0  0  0  0  0  0  0
   -0.7226   26.7637    4.0125 C   0  0  0  0  0  0  0  0  0  0  0  0
   -0.4037   26.2614    2.6356 C   0  0  0  0  0  0  0  0  0  0  0  0
    0.3072   24.9522    2.4608 C   0  0  0  0  0  0  0  0  0  0  0  0
    0.6992   24.1453    3.6629 C   0  0  0  0  0  0  0  0  0  0  0  0
    0.3803   24.6475    5.0399 C   0  0  0  0  0  0  0  0  0  0  0  0
   -0.3305   25.9567    5.2147 C   0  0  0  0  0  0  0  0  0  0  0  0
   -0.5510   26.2714    6.6647 C   0  0  0  0  0  0  0  0  0  0  0  0
   -1.2178   27.4705    7.2707 C   0  0  0  0  0  0  0  0  0  0  0  0
   -1.8290   28.6514    6.5763 C   0  0  0  0  0  0  0  0  0  0  0  0
   -1.9242   28.9247    5.1044 C   0  0  0  0  0  0  0  0  0  0  0  0
   -1.4318   28.0845    3.9635 C   0  0  0  0  0  0  0  0  0  0  0  0
   -0.4975   26.6642   -0.8589 H   0  0  0  0  0  0  0  0  0  0  0  0
   -0.1790   25.8819    2.0545 H   0  0  0  0  0  0  0  0  0  0  0  0
   -1.7654   28.7577    3.1452 H   0  0  0  0  0  0  0  0  0  0  0  0
   -0.0397   25.6606    1.4827 H   0  0  0  0  0  0  0  0  0  0  0  0
   -1.0167   27.4452    1.9478 H   0  0  0  0  0  0  0  0  0  0  0  0
    0.6261   24.4499    1.0838 H   0  0  0  0  0  0  0  0  0  0  0  0
    1.4101   22.8360    3.4881 H   0  0  0  0  0  0  0  0  0  0  0  0
    0.3853   24.5404    6.5360 H   0  0  0  0  0  0  0  0  0  0  0  0
    1.0628   23.3571    5.3849 H   0  0  0  0  0  0  0  0  0  0  0  0
   -1.0142   27.1940    5.7165 H   0  0  0  0  0  0  0  0  0  0  0  0
    0.1452   24.9630    6.8960 H   0  0  0  0  0  0  0  0  0  0  0  0
   -0.3704   25.8426    8.0907 H   0  0  0  0  0  0  0  0  0  0  0  0
   -0.9012   26.7971    8.5731 H   0  0  0  0  0  0  0  0  0  0  0  0
   -1.6438   28.1801    8.5217 H   0  0  0  0  0  0  0  0  0  0  0  0
   -2.1303   29.1200    7.9690 H   0  0  0  0  0  0  0  0  0  0  0  0
   -2.5408   29.9649    6.7103 H   0  0  0  0  0  0  0  0  0  0  0  0
   -2.6166   30.1824    5.5388 H   0  0  0  0  0  0  0  0  0  0  0  0
   -2.3858   29.8530    4.0205 H   0  0  0  0  0  0  0  0  0  0  0  0
   -2.0430   29.2653    3.2691 H   0  0  0  0  0  0  0  0  0  0  0  0
   -2.0341   29.1463    4.8352 H   0  0  0  0  0  0  0  0  0  0  0  0
  1  2  1  0
  2  3  1  0
  3  4  1  0
  4  5  1  0
  5  6  1  0
  6  7  1  0
  7  8  2  0
  8  9  1  0
  9 10  1  0
 10 11  1  0
 11 12  1  0
 12 13  1  0
 13 14  1  0
 14 15  1  0
  4  2  1  0
 10  5  1  0
 15  5  1  0
  1 16  1  0
  2 17  1  0
  4 18  1  0
  6 19  1  0
  6 20  1  0
  7 21  1  0
  8 22  1  0
  9 23  1  0
  9 24  1  0
 10 25  1  0
 11 26  1  0
 11 27  1  0
 12 28  1  0
 12 29  1  0
 13 30  1  0
 13 31  1  0
 14 32  1  0
 14 33  1  0
 15 34  1  0
 15 35  1  0
M  END
