
     RDKit          2D

 27 30  0  0  0  0  0  0  0  0999 V2000
   17.3766  -21.6005   -9.6315 C   0  0  0  0  0  0  0  0  0  0  0  0
   18.0780  -21.0089  -10.8180 C   0  0  0  0  0  0  0  0  0  0  0  0
   18.7793  -20.4172  -12.0046 C   0  0  0  0  0  0  0  0  0  0  0  0
   19.9363  -21.3647  -12.1224 C   0  0  0  0  0  0  0  0  0  0  0  0
   20.9549  -21.1734  -13.2068 C   0  0  0  0  0  0  0  0  0  0  0  0
   19.7980  -20.2260  -13.0890 C   0  0  0  0  0  0  0  0  0  0  0  0
   16.6752  -22.1922   -8.4449 C   0  0  0  0  0  0  0  0  0  0  0  0
   15.9737  -22.7838   -7.2583 C   0  0  0  0  0  0  0  0  0  0  0  0
   14.7110  -22.1581   -6.7446 C   0  0  0  0  0  0  0  0  0  0  0  0
   15.2723  -23.3754   -6.0717 C   0  0  0  0  0  0  0  0  0  0  0  0
   16.5352  -24.0012   -6.5854 C   0  0  0  0  0  0  0  0  0  0  0  0
   18.4278  -22.6668   -9.5417 H   0  0  0  0  0  0  0  0  0  0  0  0
   16.3253  -20.5343   -9.7212 H   0  0  0  0  0  0  0  0  0  0  0  0
   19.1289  -22.0754  -10.7286 H   0  0  0  0  0  0  0  0  0  0  0  0
   17.0270  -19.9424  -10.9075 H   0  0  0  0  0  0  0  0  0  0  0  0
   17.8661  -19.2643  -12.2990 H   0  0  0  0  0  0  0  0  0  0  0  0
   20.0747  -22.5033  -11.1558 H   0  0  0  0  0  0  0  0  0  0  0  0
   21.8683  -22.3263  -12.9125 H   0  0  0  0  0  0  0  0  0  0  0  0
   21.6563  -20.5817  -14.3934 H   0  0  0  0  0  0  0  0  0  0  0  0
   19.6597  -19.0873  -14.0556 H   0  0  0  0  0  0  0  0  0  0  0  0
   15.4586  -21.3711   -8.7546 H   0  0  0  0  0  0  0  0  0  0  0  0
   17.8917  -23.0132   -8.1351 H   0  0  0  0  0  0  0  0  0  0  0  0
   14.5713  -21.0208   -7.7127 H   0  0  0  0  0  0  0  0  0  0  0  0
   13.4967  -21.9273   -5.8948 H   0  0  0  0  0  0  0  0  0  0  0  0
   14.5710  -23.9671   -4.8851 H   0  0  0  0  0  0  0  0  0  0  0  0
   16.6748  -25.1384   -5.6173 H   0  0  0  0  0  0  0  0  0  0  0  0
   17.7494  -24.2319   -7.4352 H   0  0  0  0  0  0  0  0  0  0  0  0
  1  2  1  0
  2  3  1  0
  3  4  1  0
  4  5  1  0
  5  6  1  0
  1  7  1  0
  7  8  1  0
  8  9  1  0
  9 10  1  0
 10 11  1  0
  6  3  1  0
 10  8  1  0
  6  4  1  0
 11  8  1  0
  1 12  1  0
  1 13  1  0
  2 14  1  0
  2 15  1  0
  3 16  1  0
  4 17  1  0
  5 18  1  0
  5 19  1  0
  6 20  1  0
  7 21  1  0
  7 22  1  0
  9 23  1  0
  9 24  1  0
 10 25  1  0
 11 26  1  0
 11 27  1  0
M  END
