REMARK  2 active torsions:
REMARK  status: ('A' for Active; 'I' for Inactive)
REMARK    1  A    between atoms: N1_3  and  C3_4 
REMARK    2  A    between atoms: C3_4  and  C4_5 
ROOT
ATOM      1  C1  UNK     1     -14.065  18.299   1.088  1.00  0.00     0.104 C 
ATOM      2  C2  UNK     1     -14.936  17.083   1.210  1.00  0.00    -0.018 C 
ATOM      3  N1  UNK     1     -15.808  15.869   1.332  1.00  0.00    -0.166 NA
ENDROOT
BRANCH   3   4
ATOM      4  C3  UNK     1     -15.342  14.690   2.136  1.00  0.00     0.003 C 
BRANCH   4   5
ATOM      5  C4  UNK     1     -14.877  13.511   2.938  1.00  0.00     0.040 A 
ATOM      6  O1  UNK     1     -16.153  12.790   2.619  1.00  0.00     0.000 OA
ATOM      7  C6  UNK     1     -15.760  11.908   3.239  1.00  0.00    -0.013 A 
ATOM      8  H11 UNK     1     -15.951  12.564   2.827  1.00  0.00     0.032 HD
ATOM      9  H12 UNK     1     -16.993  12.226   2.445  1.00  0.00     0.000 HD
ATOM     10  C5  UNK     1     -14.412  12.332   3.740  1.00  0.00     0.050 A 
ATOM     11  C7  UNK     1     -16.813  10.840   3.197  1.00  0.00    -0.001 A 
ATOM     12  C23 UNK     1     -13.195  11.978   4.543  1.00  0.00    -0.036 A 
ATOM     13  C24 UNK     1     -13.283  13.312   3.863  1.00  0.00     0.263 A 
ATOM     14  C22 UNK     1     -12.497  10.957   5.391  1.00  0.00    -0.035 A 
ATOM     15  C21 UNK     1     -12.539   9.594   6.017  1.00  0.00     0.025 A 
ATOM     16  C19 UNK     1     -13.307   8.321   6.221  1.00  0.00     0.001 A 
ATOM     17  C20 UNK     1     -11.420   9.052   6.857  1.00  0.00     0.129 A 
ATOM     18  C18 UNK     1     -14.558   7.545   5.937  1.00  0.00    -0.003 A 
ATOM     19  S1  UNK     1     -12.188   7.780   7.061  1.00  0.00    -0.125 SA
ATOM     20  C17 UNK     1     -15.895   7.508   5.258  1.00  0.00    -0.030 A 
ATOM     21  C11 UNK     1     -16.893   8.225   4.397  1.00  0.00    -0.054 A 
ATOM     22  C16 UNK     1     -16.193   6.127   5.759  1.00  0.00     0.025 A 
ATOM     23  C8  UNK     1     -17.235   9.467   3.629  1.00  0.00     0.003 A 
ATOM     24  C12 UNK     1     -18.188   7.560   4.038  1.00  0.00     0.072 A 
ATOM     25  C9  UNK     1     -18.430   8.585   3.425  1.00  0.00     0.051 A 
ATOM     26  C10 UNK     1     -18.388   9.947   2.800  1.00  0.00    -0.009 A 
ATOM     27  C13 UNK     1     -19.187   8.277   3.178  1.00  0.00    -0.037 A 
ATOM     28  C14 UNK     1     -18.486   6.178   4.539  1.00  0.00    -0.022 A 
ATOM     29  C15 UNK     1     -17.489   5.461   5.400  1.00  0.00    -0.001 A 
ATOM     30 Cl1  UNK     1     -12.681  14.648   3.542  1.00  0.00    -0.251 Cl
ATOM     31  H13 UNK     1     -17.430  11.922   2.362  1.00  0.00     0.000 HD
ENDBRANCH   4   5
ENDBRANCH   3   4
TORSDOF 2
