MODEL 1
REMARK VINA RESULT:    -4.769      0.000      0.000
REMARK INTER + INTRA:          -5.620
REMARK INTER:                  -5.337
REMARK INTRA:                  -0.283
REMARK UNBOUND:                -0.294
REMARK  2 active torsions:
REMARK  status: ('A' for Active; 'I' for Inactive)
REMARK    1  A    between atoms: N1_3  and  C3_4 
REMARK    2  A    between atoms: C3_4  and  C4_5 
ROOT
ATOM      1  C1  UNK     1       5.366 -29.894  -0.209  1.00  0.00     0.104 C 
ATOM      2  C2  UNK     1       6.694 -29.635  -0.858  1.00  0.00    -0.018 C 
ATOM      3  N1  UNK     1       8.022 -29.377  -1.506  1.00  0.00    -0.166 NA
ENDROOT
BRANCH   3   4
ATOM      4  C3  UNK     1       8.700 -28.051  -1.322  1.00  0.00     0.003 C 
BRANCH   4   5
ATOM      5  C4  UNK     1       9.379 -26.726  -1.139  1.00  0.00     0.040 A 
ATOM      6  O1  UNK     1      10.075 -26.900  -2.457  1.00  0.00     0.000 OA
ATOM      7  C6  UNK     1      10.573 -25.881  -2.281  1.00  0.00    -0.013 A 
ATOM      8  H11 UNK     1      10.182 -26.576  -2.321  1.00  0.00     0.032 HD
ATOM      9  H12 UNK     1      10.586 -26.938  -3.346  1.00  0.00     0.000 HD
ATOM     10  C5  UNK     1      10.058 -25.401  -0.957  1.00  0.00     0.050 A 
ATOM     11  C7  UNK     1      11.450 -25.612  -3.468  1.00  0.00    -0.001 A 
ATOM     12  C23 UNK     1      10.071 -24.323   0.087  1.00  0.00    -0.036 A 
ATOM     13  C24 UNK     1       9.224 -25.546   0.281  1.00  0.00     0.263 A 
ATOM     14  C22 UNK     1      10.606 -22.990   0.516  1.00  0.00    -0.035 A 
ATOM     15  C21 UNK     1      11.495 -21.824   0.196  1.00  0.00     0.025 A 
ATOM     16  C19 UNK     1      12.454 -21.195  -0.772  1.00  0.00     0.001 A 
ATOM     17  C20 UNK     1      11.645 -20.643   1.110  1.00  0.00     0.129 A 
ATOM     18  C18 UNK     1      13.178 -21.306  -2.080  1.00  0.00    -0.003 A 
ATOM     19  S1  UNK     1      12.604 -20.016   0.143  1.00  0.00    -0.125 SA
ATOM     20  C17 UNK     1      13.440 -22.118  -3.314  1.00  0.00    -0.030 A 
ATOM     21  C11 UNK     1      13.154 -23.375  -4.082  1.00  0.00    -0.054 A 
ATOM     22  C16 UNK     1      14.386 -21.098  -3.873  1.00  0.00     0.025 A 
ATOM     23  C8  UNK     1      12.412 -24.677  -4.139  1.00  0.00     0.003 A 
ATOM     24  C12 UNK     1      13.815 -23.611  -5.407  1.00  0.00     0.072 A 
ATOM     25  C9  UNK     1      13.195 -24.660  -5.417  1.00  0.00     0.051 A 
ATOM     26  C10 UNK     1      12.307 -25.825  -5.097  1.00  0.00    -0.009 A 
ATOM     27  C13 UNK     1      13.530 -24.868  -6.174  1.00  0.00    -0.037 A 
ATOM     28  C14 UNK     1      14.761 -22.590  -5.966  1.00  0.00    -0.022 A 
ATOM     29  C15 UNK     1      15.047 -21.333  -5.199  1.00  0.00    -0.001 A 
ATOM     30 Cl1  UNK     1       8.253 -26.334   1.110  1.00  0.00    -0.251 Cl
ATOM     31  H13 UNK     1      10.861 -26.948  -3.810  1.00  0.00     0.000 HD
ENDBRANCH   4   5
ENDBRANCH   3   4
TORSDOF 2
ENDMDL
