
     RDKit          2D

 36 39  0  0  0  0  0  0  0  0999 V2000
   22.2011  -19.8225  -11.3710 O   0  0  0  0  0  0  0  0  0  0  0  0
   22.0315  -19.6512   -9.8905 C   0  0  0  0  0  0  0  0  0  0  0  0
   20.8670  -20.2870   -9.1905 C   0  0  0  0  0  0  0  0  0  0  0  0
   20.6974  -20.1157   -7.7100 N   0  0  0  0  0  0  0  0  0  0  0  0
   19.5329  -20.7515   -7.0100 O   0  0  0  0  0  0  0  0  0  0  0  0
   18.5382  -21.5585   -7.7905 C   0  0  0  0  0  0  0  0  0  0  0  0
   17.9524  -21.6825   -6.4152 C   0  0  0  0  0  0  0  0  0  0  0  0
   17.0211  -22.0867   -5.3110 C   0  0  0  0  0  0  0  0  0  0  0  0
   16.7542  -22.5326   -6.7182 C   0  0  0  0  0  0  0  0  0  0  0  0
   15.4971  -23.3231   -6.5068 C   0  0  0  0  0  0  0  0  0  0  0  0
   14.1611  -22.6483   -6.6061 O   0  0  0  0  0  0  0  0  0  0  0  0
   15.5759  -24.7885   -6.1963 O   0  0  0  0  0  0  0  0  0  0  0  0
   18.7079  -21.7298   -9.2711 C   0  0  0  0  0  0  0  0  0  0  0  0
   18.8776  -21.9011  -10.7515 C   0  0  0  0  0  0  0  0  0  0  0  0
   19.4634  -21.7771  -12.1269 C   0  0  0  0  0  0  0  0  0  0  0  0
   20.0492  -21.6531  -13.5021 C   0  0  0  0  0  0  0  0  0  0  0  0
   20.2189  -21.8244  -14.9827 C   0  0  0  0  0  0  0  0  0  0  0  0
   19.0545  -22.4601  -14.2826 C   0  0  0  0  0  0  0  0  0  0  0  0
   19.8723  -21.0940   -9.9710 C   0  0  0  0  0  0  0  0  0  0  0  0
   23.0262  -18.8442   -9.1100 H   0  0  0  0  0  0  0  0  0  0  0  0
   17.6128  -22.2443   -8.1773 H   0  0  0  0  0  0  0  0  0  0  0  0
   18.9471  -20.8754   -5.6347 H   0  0  0  0  0  0  0  0  0  0  0  0
   17.6924  -21.4201   -4.1470 H   0  0  0  0  0  0  0  0  0  0  0  0
   15.8567  -22.7225   -4.6111 H   0  0  0  0  0  0  0  0  0  0  0  0
   16.7675  -22.7525   -7.9130 H   0  0  0  0  0  0  0  0  0  0  0  0
   15.5724  -25.7926   -7.3106 H   0  0  0  0  0  0  0  0  0  0  0  0
   19.8764  -20.8801   -8.8677 H   0  0  0  0  0  0  0  0  0  0  0  0
   17.6794  -22.7511  -11.0544 H   0  0  0  0  0  0  0  0  0  0  0  0
   18.4039  -22.5413  -12.4676 H   0  0  0  0  0  0  0  0  0  0  0  0
   20.4169  -21.0894  -11.8203 H   0  0  0  0  0  0  0  0  0  0  0  0
   21.2474  -20.8030  -13.1993 H   0  0  0  0  0  0  0  0  0  0  0  0
   21.4760  -21.0338  -15.1940 H   0  0  0  0  0  0  0  0  0  0  0  0
   19.9520  -22.2702  -16.3898 H   0  0  0  0  0  0  0  0  0  0  0  0
   18.3832  -23.1268  -15.4468 H   0  0  0  0  0  0  0  0  0  0  0  0
   18.1298  -22.9034  -13.4046 H   0  0  0  0  0  0  0  0  0  0  0  0
   20.5898  -20.7987  -10.9061 H   0  0  0  0  0  0  0  0  0  0  0  0
  1  2  2  0
  2  3  1  0
  3  4  2  0
  4  5  1  0
  5  6  1  0
  6  7  1  0
  7  8  1  0
  8  9  1  0
  9 10  1  0
 10 11  2  0
 10 12  1  0
  6 13  1  0
 13 14  1  0
 14 15  1  0
 15 16  1  0
 16 17  1  0
 17 18  1  0
 14 19  1  0
 19  3  1  0
  9  7  1  0
 19 13  1  0
 18 16  1  0
  2 20  1  0
  6 21  1  0
  7 22  1  0
  8 23  1  0
  8 24  1  0
  9 25  1  0
 12 26  1  0
 13 27  1  0
 14 28  1  0
 15 29  1  0
 15 30  1  0
 16 31  1  0
 17 32  1  0
 17 33  1  0
 18 34  1  0
 18 35  1  0
 19 36  1  0
M  END
