
     RDKit          2D

 27 33  0  0  0  0  0  0  0  0999 V2000
   18.1501  -23.1748   -8.2670 C   0  0  0  0  0  0  0  0  0  0  0  0
   19.2760  -22.3361   -7.7389 N   0  0  0  0  0  0  0  0  0  0  0  0
   20.6117  -20.9389   -8.3663 C   0  0  0  0  0  0  0  0  0  0  0  0
   20.6306  -20.4654   -9.7895 C   0  0  0  0  0  0  0  0  0  0  0  0
   19.6517  -21.0245  -10.7790 C   0  0  0  0  0  0  0  0  0  0  0  0
   19.8405  -20.4193  -12.1384 C   0  0  0  0  0  0  0  0  0  0  0  0
   19.0781  -20.6972  -13.4000 N   0  0  0  0  0  0  0  0  0  0  0  0
   17.9386  -21.6490  -13.6136 C   0  0  0  0  0  0  0  0  0  0  0  0
   17.2800  -22.5579  -12.6185 C   0  0  0  0  0  0  0  0  0  0  0  0
   18.4195  -21.6061  -12.4049 N   0  0  0  0  0  0  0  0  0  0  0  0
   17.5984  -22.7394  -11.1640 C   0  0  0  0  0  0  0  0  0  0  0  0
   17.7498  -23.0707   -9.7089 C   0  0  0  0  0  0  0  0  0  0  0  0
   18.6538  -22.0570  -10.3453 C   0  0  0  0  0  0  0  0  0  0  0  0
   19.6328  -21.4980   -9.3558 C   0  0  0  0  0  0  0  0  0  0  0  0
   17.5717  -23.7177   -8.1890 H   0  0  0  0  0  0  0  0  0  0  0  0
   18.1607  -23.6244   -6.8360 H   0  0  0  0  0  0  0  0  0  0  0  0
   19.6764  -22.4402   -6.2970 H   0  0  0  0  0  0  0  0  0  0  0  0
   21.1660  -20.8895   -6.9734 H   0  0  0  0  0  0  0  0  0  0  0  0
   21.6285  -19.4328  -10.2231 H   0  0  0  0  0  0  0  0  0  0  0  0
   20.8960  -19.7368  -11.3198 H   0  0  0  0  0  0  0  0  0  0  0  0
   20.4991  -19.5104  -13.1335 H   0  0  0  0  0  0  0  0  0  0  0  0
   18.1273  -21.0438  -14.9731 H   0  0  0  0  0  0  0  0  0  0  0  0
   16.8830  -22.3314  -14.4323 H   0  0  0  0  0  0  0  0  0  0  0  0
   16.1543  -23.3959  -13.1479 H   0  0  0  0  0  0  0  0  0  0  0  0
   18.9738  -21.5567  -11.0119 H   0  0  0  0  0  0  0  0  0  0  0  0
   16.4814  -23.7407  -11.1601 H   0  0  0  0  0  0  0  0  0  0  0  0
   17.4522  -23.5245   -9.1249 H   0  0  0  0  0  0  0  0  0  0  0  0
  1  2  1  0
  2  3  1  0
  3  4  1  0
  4  5  1  0
  5  6  1  0
  6  7  1  0
  7  8  1  0
  8  9  1  0
  9 10  1  0
  9 11  1  0
 11 12  1  0
 12 13  1  0
 13 14  1  0
 12  1  1  0
 14  3  1  0
 14  4  1  0
 13  5  1  0
 14  5  1  0
 10  7  1  0
 13 11  1  0
  1 15  1  0
  1 16  1  0
  2 17  1  0
  3 18  1  0
  4 19  1  0
  6 20  1  0
  6 21  1  0
  8 22  1  0
  8 23  1  0
  9 24  1  0
 10 25  1  0
 11 26  1  0
 12 27  1  0
M  END
