
     RDKit          2D

 30 32  0  0  0  0  0  0  0  0999 V2000
   13.2996  -19.4637   -8.1644 C   0  0  0  0  0  0  0  0  0  0  0  0
   14.3380  -19.2280   -9.2209 C   0  0  0  0  0  0  0  0  0  0  0  0
   13.6200  -17.9250   -9.4132 C   0  0  0  0  0  0  0  0  0  0  0  0
   14.3194  -17.1667  -10.5022 C   0  0  0  0  0  0  0  0  0  0  0  0
   14.7993  -16.1914  -11.5358 C   0  0  0  0  0  0  0  0  0  0  0  0
   15.4696  -18.0010  -10.9828 S   0  0  0  0  0  6  0  0  0  0  0  0
   15.3741  -16.6979  -11.7196 C   0  0  0  0  0  0  0  0  0  0  0  0
   16.0625  -17.1294  -12.0500 O   0  0  0  0  0  0  0  0  0  0  0  0
   17.1124  -18.1676  -12.3147 C   0  0  0  0  0  0  0  0  0  0  0  0
   16.5195  -19.0392  -11.2475 C   0  0  0  0  0  0  0  0  0  0  0  0
   17.3801  -20.2675  -11.2269 O   0  0  0  0  0  0  0  0  0  0  0  0
   15.4811  -19.2749  -10.1910 C   0  0  0  0  0  0  0  0  0  0  0  0
   12.2612  -19.6994   -7.1079 H   0  0  0  0  0  0  0  0  0  0  0  0
   12.7527  -18.9598   -8.4515 H   0  0  0  0  0  0  0  0  0  0  0  0
   14.2089  -20.4479   -7.4902 H   0  0  0  0  0  0  0  0  0  0  0  0
   14.8389  -20.5801   -8.8077 H   0  0  0  0  0  0  0  0  0  0  0  0
   12.7164  -16.7284   -9.3763 H   0  0  0  0  0  0  0  0  0  0  0  0
   13.0986  -18.1116   -8.8398 H   0  0  0  0  0  0  0  0  0  0  0  0
   13.2695  -16.1286  -10.2376 H   0  0  0  0  0  0  0  0  0  0  0  0
   15.1408  -15.1086  -12.5161 H   0  0  0  0  0  0  0  0  0  0  0  0
   13.6932  -15.2501  -11.1611 H   0  0  0  0  0  0  0  0  0  0  0  0
   16.0012  -16.5646  -12.3520 H   0  0  0  0  0  0  0  0  0  0  0  0
   14.8388  -16.6705  -11.2688 H   0  0  0  0  0  0  0  0  0  0  0  0
   15.4256  -15.4501  -12.5504 H   0  0  0  0  0  0  0  0  0  0  0  0
   16.5169  -16.7449  -12.6899 H   0  0  0  0  0  0  0  0  0  0  0  0
   14.1696  -16.1685  -10.9992 H   0  0  0  0  0  0  0  0  0  0  0  0
   18.1622  -19.2057  -12.5792 H   0  0  0  0  0  0  0  0  0  0  0  0
   17.7052  -17.2959  -13.3818 H   0  0  0  0  0  0  0  0  0  0  0  0
   18.5417  -20.3853  -12.1686 H   0  0  0  0  0  0  0  0  0  0  0  0
   15.9820  -20.6271   -9.7778 H   0  0  0  0  0  0  0  0  0  0  0  0
  1  2  1  0
  2  3  1  0
  3  4  1  0
  4  5  1  0
  4  6  1  0
  6  7  1  0
  6  8  1  0
  8  9  1  0
  9 10  1  0
 10 11  1  0
 10 12  1  0
 12  2  1  0
 10  6  1  0
 12  6  1  0
  1 13  1  0
  1 14  1  0
  1 15  1  0
  2 16  1  0
  3 17  1  0
  3 18  1  0
  4 19  1  0
  5 20  1  0
  5 21  1  0
  5 22  1  0
  6 23  1  0
  7 24  1  0
  7 25  1  0
  7 26  1  0
  9 27  1  0
  9 28  1  0
 11 29  1  0
 12 30  1  0
M  END
