
     RDKit          2D

 54 57  0  0  0  0  0  0  0  0999 V2000
   20.0909  -23.4801   -7.3013 C   0  0  0  0  0  0  0  0  0  0  0  0
   19.0030  -22.4597   -7.4599 C   0  0  0  0  0  0  0  0  0  0  0  0
   18.8771  -22.8609   -6.0199 C   0  0  0  0  0  0  0  0  0  0  0  0
   17.9037  -22.3642   -4.9925 C   0  0  0  0  0  0  0  0  0  0  0  0
   16.8157  -21.3438   -5.1510 C   0  0  0  0  0  0  0  0  0  0  0  0
   16.4325  -20.5680   -6.3762 C   0  0  0  0  0  0  0  0  0  0  0  0
   17.0426  -20.6210   -7.7456 C   0  0  0  0  0  0  0  0  0  0  0  0
   17.1684  -20.2199   -9.1855 C   0  0  0  0  0  0  0  0  0  0  0  0
   15.9546  -19.6006   -7.9041 C   0  0  0  0  0  0  0  0  0  0  0  0
   14.8667  -18.5802   -8.0627 C   0  0  0  0  0  0  0  0  0  0  0  0
   13.7788  -17.5597   -8.2212 C   0  0  0  0  0  0  0  0  0  0  0  0
   12.6273  -16.6619   -7.8774 C   0  0  0  0  0  0  0  0  0  0  0  0
   13.2181  -17.5584   -6.8299 C   0  0  0  0  0  0  0  0  0  0  0  0
   12.3473  -17.2028   -5.6615 N   0  0  0  0  0  0  0  0  0  0  0  0
   12.5644  -17.8676   -4.3346 C   0  0  0  0  0  0  0  0  0  0  0  0
   12.3817  -18.2207   -2.8881 C   0  0  0  0  0  0  0  0  0  0  0  0
   11.4884  -17.2007   -3.5299 C   0  0  0  0  0  0  0  0  0  0  0  0
   16.3302  -19.4241   -9.3455 C   0  0  0  0  0  0  0  0  0  0  0  0
   16.3111  -18.9093  -10.7543 C   0  0  0  0  0  0  0  0  0  0  0  0
   15.3240  -18.3886   -9.7520 C   0  0  0  0  0  0  0  0  0  0  0  0
   18.1865  -21.4628   -8.2278 C   0  0  0  0  0  0  0  0  0  0  0  0
   21.1789  -24.5006   -7.1428 H   0  0  0  0  0  0  0  0  0  0  0  0
   20.4686  -23.3014   -8.7420 H   0  0  0  0  0  0  0  0  0  0  0  0
   19.9479  -23.6584   -6.4456 H   0  0  0  0  0  0  0  0  0  0  0  0
   19.7275  -22.6385   -8.7611 H   0  0  0  0  0  0  0  0  0  0  0  0
   19.4056  -23.4634   -5.6430 H   0  0  0  0  0  0  0  0  0  0  0  0
   18.0357  -22.9678   -3.6256 H   0  0  0  0  0  0  0  0  0  0  0  0
   15.6964  -20.5818   -4.5057 H   0  0  0  0  0  0  0  0  0  0  0  0
   16.6899  -21.7450   -3.7111 H   0  0  0  0  0  0  0  0  0  0  0  0
   15.5232  -19.5443   -6.9886 H   0  0  0  0  0  0  0  0  0  0  0  0
   15.3913  -19.9642   -5.4810 H   0  0  0  0  0  0  0  0  0  0  0  0
   17.4329  -19.9382  -10.6348 H   0  0  0  0  0  0  0  0  0  0  0  0
   16.5944  -19.6758   -9.2850 H   0  0  0  0  0  0  0  0  0  0  0  0
   18.3199  -21.1189   -9.5258 H   0  0  0  0  0  0  0  0  0  0  0  0
   15.4492  -19.6513   -6.4928 H   0  0  0  0  0  0  0  0  0  0  0  0
   14.6231  -18.8837   -6.6141 H   0  0  0  0  0  0  0  0  0  0  0  0
   14.9713  -18.1581   -9.4983 H   0  0  0  0  0  0  0  0  0  0  0  0
   13.9615  -17.2067   -9.6676 H   0  0  0  0  0  0  0  0  0  0  0  0
   12.4102  -15.9971   -9.2044 H   0  0  0  0  0  0  0  0  0  0  0  0
   11.5513  -15.9950   -7.0728 H   0  0  0  0  0  0  0  0  0  0  0  0
   14.0161  -18.5486   -6.0345 H   0  0  0  0  0  0  0  0  0  0  0  0
   11.2594  -16.1824   -5.8200 H   0  0  0  0  0  0  0  0  0  0  0  0
   13.7159  -18.7655   -4.6783 H   0  0  0  0  0  0  0  0  0  0  0  0
   13.4696  -19.2411   -2.7296 H   0  0  0  0  0  0  0  0  0  0  0  0
   11.8210  -18.2193   -1.4968 H   0  0  0  0  0  0  0  0  0  0  0  0
   10.6176  -16.8451   -2.3614 H   0  0  0  0  0  0  0  0  0  0  0  0
   10.8976  -16.3043   -4.5774 H   0  0  0  0  0  0  0  0  0  0  0  0
   17.4562  -20.2078   -9.9522 H   0  0  0  0  0  0  0  0  0  0  0  0
   17.4059  -19.6180  -11.4952 H   0  0  0  0  0  0  0  0  0  0  0  0
   15.8994  -18.1182  -11.9604 H   0  0  0  0  0  0  0  0  0  0  0  0
   14.5696  -17.4166  -10.6101 H   0  0  0  0  0  0  0  0  0  0  0  0
   14.4043  -17.9642   -8.6457 H   0  0  0  0  0  0  0  0  0  0  0  0
   19.0776  -21.8450   -9.3723 H   0  0  0  0  0  0  0  0  0  0  0  0
   18.0774  -20.8762   -9.6040 H   0  0  0  0  0  0  0  0  0  0  0  0
  1  2  1  0
  2  3  1  0
  3  4  2  0
  4  5  1  0
  5  6  1  0
  6  7  1  0
  7  8  1  0
  7  9  1  0
  9 10  1  0
 10 11  1  0
 11 12  1  0
 12 13  1  0
 13 14  1  0
 14 15  1  0
 15 16  1  0
 16 17  1  0
  9 18  1  0
 18 19  1  0
 19 20  1  0
  7 21  1  0
 21  2  1  0
 13 11  1  0
 17 15  1  0
 20 18  1  0
  1 22  1  0
  1 23  1  0
  1 24  1  0
  2 25  1  0
  3 26  1  0
  4 27  1  0
  5 28  1  0
  5 29  1  0
  6 30  1  0
  6 31  1  0
  8 32  1  0
  8 33  1  0
  8 34  1  0
  9 35  1  0
 10 36  1  0
 10 37  1  0
 11 38  1  0
 12 39  1  0
 12 40  1  0
 13 41  1  0
 14 42  1  0
 15 43  1  0
 16 44  1  0
 16 45  1  0
 17 46  1  0
 17 47  1  0
 18 48  1  0
 19 49  1  0
 19 50  1  0
 20 51  1  0
 20 52  1  0
 21 53  1  0
 21 54  1  0
M  END
