
     RDKit          2D

105113  0  0  0  0  0  0  0  0999 V2000
   22.7794  -25.2005   -4.8915 C   0  0  0  0  0  0  0  0  0  0  0  0
   21.5439  -24.9933   -4.0665 C   0  0  0  0  0  0  0  0  0  0  0  0
   21.5004  -25.4753   -2.6467 C   0  0  0  0  0  0  0  0  0  0  0  0
   20.3517  -24.3042   -4.6615 C   0  0  0  0  0  0  0  0  0  0  0  0
   19.1595  -23.6151   -5.2563 O   0  0  0  0  0  0  0  0  0  0  0  0
   19.2030  -23.1332   -6.6762 C   0  0  0  0  0  0  0  0  0  0  0  0
   19.2464  -22.6513   -8.0960 C   0  0  0  0  0  0  0  0  0  0  0  0
   19.9852  -22.4913   -9.3915 O   0  0  0  0  0  0  0  0  0  0  0  0
   19.3215  -21.8165  -10.5552 C   0  0  0  0  0  0  0  0  0  0  0  0
   17.9188  -21.3017  -10.4233 C   0  0  0  0  0  0  0  0  0  0  0  0
   17.1799  -21.4616   -9.1277 C   0  0  0  0  0  0  0  0  0  0  0  0
   15.7772  -20.9468   -8.9958 C   0  0  0  0  0  0  0  0  0  0  0  0
   14.3962  -20.5434   -8.5716 C   0  0  0  0  0  0  0  0  0  0  0  0
   14.7883  -21.1608   -7.2621 C   0  0  0  0  0  0  0  0  0  0  0  0
   13.7324  -19.8685   -9.7353 C   0  0  0  0  0  0  0  0  0  0  0  0
   12.3419  -19.3061   -9.7525 C   0  0  0  0  0  0  0  0  0  0  0  0
   14.7032  -19.8549  -10.8786 C   0  0  0  0  0  0  0  0  0  0  0  0
   15.8635  -19.9881  -11.8199 C   0  0  0  0  0  0  0  0  0  0  0  0
   15.9670  -20.5213  -10.4216 C   0  0  0  0  0  0  0  0  0  0  0  0
   17.3697  -21.0361  -10.5536 C   0  0  0  0  0  0  0  0  0  0  0  0
   18.7723  -21.5510  -10.6854 C   0  0  0  0  0  0  0  0  0  0  0  0
   18.3003  -20.9142  -11.9589 C   0  0  0  0  0  0  0  0  0  0  0  0
   18.4484  -20.4721  -13.3846 C   0  0  0  0  0  0  0  0  0  0  0  0
   19.1873  -20.3121  -14.6801 C   0  0  0  0  0  0  0  0  0  0  0  0
   20.3707  -20.4660  -15.5889 C   0  0  0  0  0  0  0  0  0  0  0  0
   21.7643  -20.9033  -15.9309 C   0  0  0  0  0  0  0  0  0  0  0  0
   23.0918  -21.5373  -15.6385 C   0  0  0  0  0  0  0  0  0  0  0  0
   24.0906  -22.2426  -14.7694 C   0  0  0  0  0  0  0  0  0  0  0  0
   24.5626  -22.8793  -13.4960 N   0  0  0  0  0  0  0  0  0  0  0  0
   25.7824  -23.5597  -12.9491 C   0  0  0  0  0  0  0  0  0  0  0  0
   25.4995  -23.9464  -11.5277 C   0  0  0  0  0  0  0  0  0  0  0  0
   26.8961  -24.4926  -11.5637 C   0  0  0  0  0  0  0  0  0  0  0  0
   24.1048  -23.5050  -11.1960 C   0  0  0  0  0  0  0  0  0  0  0  0
   22.8265  -23.2552  -10.4521 C   0  0  0  0  0  0  0  0  0  0  0  0
   22.2474  -22.5956  -11.6686 C   0  0  0  0  0  0  0  0  0  0  0  0
   23.5258  -22.8455  -12.4125 C   0  0  0  0  0  0  0  0  0  0  0  0
   21.0987  -22.8902   -9.5240 N   0  0  0  0  0  0  0  0  0  0  0  0
   19.7711  -22.2562   -9.8164 C   0  0  0  0  0  0  0  0  0  0  0  0
   17.8436  -22.1364   -7.9641 C   0  0  0  0  0  0  0  0  0  0  0  0
   17.8003  -22.6184   -6.5442 C   0  0  0  0  0  0  0  0  0  0  0  0
   17.5267  -20.6843  -11.7328 C   0  0  0  0  0  0  0  0  0  0  0  0
   18.6870  -20.8175  -12.6741 C   0  0  0  0  0  0  0  0  0  0  0  0
   19.7962  -21.5173  -11.9462 C   0  0  0  0  0  0  0  0  0  0  0  0
   20.5352  -21.3574  -13.2417 C   0  0  0  0  0  0  0  0  0  0  0  0
   21.2741  -21.1974  -14.5373 C   0  0  0  0  0  0  0  0  0  0  0  0
   23.9716  -25.8896   -4.2966 H   0  0  0  0  0  0  0  0  0  0  0  0
   22.8228  -24.7186   -6.3113 H   0  0  0  0  0  0  0  0  0  0  0  0
   21.4569  -25.9571   -1.2269 H   0  0  0  0  0  0  0  0  0  0  0  0
   20.0986  -24.9582   -2.5142 H   0  0  0  0  0  0  0  0  0  0  0  0
   22.9023  -25.9922   -2.7793 H   0  0  0  0  0  0  0  0  0  0  0  0
   21.0887  -24.1491   -5.9587 H   0  0  0  0  0  0  0  0  0  0  0  0
   19.6147  -24.4594   -3.3642 H   0  0  0  0  0  0  0  0  0  0  0  0
   20.6056  -23.6480   -6.8080 H   0  0  0  0  0  0  0  0  0  0  0  0
   20.5306  -23.3092   -7.6863 H   0  0  0  0  0  0  0  0  0  0  0  0
   16.0505  -21.5322   -7.6421 H   0  0  0  0  0  0  0  0  0  0  0  0
   13.0971  -20.2690   -7.8737 H   0  0  0  0  0  0  0  0  0  0  0  0
   15.1805  -21.7783   -5.9525 H   0  0  0  0  0  0  0  0  0  0  0  0
   13.4399  -20.8223   -6.6987 H   0  0  0  0  0  0  0  0  0  0  0  0
   16.1744  -21.5721   -7.6616 H   0  0  0  0  0  0  0  0  0  0  0  0
   11.8111  -18.6564  -10.9960 H   0  0  0  0  0  0  0  0  0  0  0  0
   11.4823  -19.3934   -8.5264 H   0  0  0  0  0  0  0  0  0  0  0  0
   13.7969  -19.1522  -11.8455 H   0  0  0  0  0  0  0  0  0  0  0  0
   15.2877  -19.3293  -13.0382 H   0  0  0  0  0  0  0  0  0  0  0  0
   16.7799  -19.9375  -13.0064 H   0  0  0  0  0  0  0  0  0  0  0  0
   17.0732  -20.4419  -11.8985 H   0  0  0  0  0  0  0  0  0  0  0  0
   17.6662  -21.6304   -9.2086 H   0  0  0  0  0  0  0  0  0  0  0  0
   18.0664  -21.7297   -9.3741 H   0  0  0  0  0  0  0  0  0  0  0  0
   17.1436  -20.2206  -12.6153 H   0  0  0  0  0  0  0  0  0  0  0  0
   17.0508  -20.6959  -11.1583 H   0  0  0  0  0  0  0  0  0  0  0  0
   17.6078  -19.7743  -14.4124 H   0  0  0  0  0  0  0  0  0  0  0  0
   17.0455  -19.9844  -13.1751 H   0  0  0  0  0  0  0  0  0  0  0  0
   18.7517  -19.6839  -15.9707 H   0  0  0  0  0  0  0  0  0  0  0  0
   17.8478  -19.6868  -14.9342 H   0  0  0  0  0  0  0  0  0  0  0  0
   20.5570  -20.0391  -17.0148 H   0  0  0  0  0  0  0  0  0  0  0  0
   19.3454  -19.7612  -16.4266 H   0  0  0  0  0  0  0  0  0  0  0  0
   22.5356  -20.7622  -17.2097 H   0  0  0  0  0  0  0  0  0  0  0  0
   21.2562  -20.2585  -17.1864 H   0  0  0  0  0  0  0  0  0  0  0  0
   24.2955  -21.7101  -16.5168 H   0  0  0  0  0  0  0  0  0  0  0  0
   23.2017  -21.0803  -17.0629 H   0  0  0  0  0  0  0  0  0  0  0  0
   25.4932  -22.7574  -14.9013 H   0  0  0  0  0  0  0  0  0  0  0  0
   24.7965  -22.0639  -16.0808 H   0  0  0  0  0  0  0  0  0  0  0  0
   26.3450  -23.3041  -14.3159 H   0  0  0  0  0  0  0  0  0  0  0  0
   27.1617  -24.1427  -12.8608 H   0  0  0  0  0  0  0  0  0  0  0  0
   25.5085  -24.4473  -10.1138 H   0  0  0  0  0  0  0  0  0  0  0  0
   28.2926  -25.0387  -11.5997 H   0  0  0  0  0  0  0  0  0  0  0  0
   26.7596  -24.9359  -10.1372 H   0  0  0  0  0  0  0  0  0  0  0  0
   27.2018  -24.1191  -12.9839 H   0  0  0  0  0  0  0  0  0  0  0  0
   24.4767  -24.1173   -9.8782 H   0  0  0  0  0  0  0  0  0  0  0  0
   22.3320  -23.5448   -9.0659 H   0  0  0  0  0  0  0  0  0  0  0  0
   21.8285  -21.9715  -12.9666 H   0  0  0  0  0  0  0  0  0  0  0  0
   21.0493  -22.4281  -10.7819 H   0  0  0  0  0  0  0  0  0  0  0  0
   22.9025  -22.1777  -13.6023 H   0  0  0  0  0  0  0  0  0  0  0  0
   21.1218  -23.3961   -8.1120 H   0  0  0  0  0  0  0  0  0  0  0  0
   18.5674  -22.0835   -8.9381 H   0  0  0  0  0  0  0  0  0  0  0  0
   20.1701  -22.8754   -8.5097 H   0  0  0  0  0  0  0  0  0  0  0  0
   16.7777  -22.5950   -5.4471 H   0  0  0  0  0  0  0  0  0  0  0  0
   16.3602  -19.9923  -12.3734 H   0  0  0  0  0  0  0  0  0  0  0  0
   17.6568  -20.1128  -13.5060 H   0  0  0  0  0  0  0  0  0  0  0  0
   19.5270  -20.7180  -13.9128 H   0  0  0  0  0  0  0  0  0  0  0  0
   20.9762  -22.2068  -11.3280 H   0  0  0  0  0  0  0  0  0  0  0  0
   21.8095  -22.0195  -12.8085 H   0  0  0  0  0  0  0  0  0  0  0  0
   19.4410  -20.6562  -13.9910 H   0  0  0  0  0  0  0  0  0  0  0  0
   22.2798  -21.2085  -15.6502 H   0  0  0  0  0  0  0  0  0  0  0  0
   22.5483  -21.8596  -14.1040 H   0  0  0  0  0  0  0  0  0  0  0  0
   20.2953  -20.4924  -15.4288 H   0  0  0  0  0  0  0  0  0  0  0  0
  1  2  2  3
  2  3  1  0
  2  4  1  0
  4  5  1  0
  5  6  1  0
  6  7  1  0
  7  8  1  0
  8  9  1  0
  9 10  2  0
 10 11  1  0
 11 12  1  0
 12 13  1  0
 13 14  1  0
 13 15  1  0
 15 16  2  3
 15 17  1  0
 17 18  1  0
 18 19  1  0
 19 20  1  0
 20 21  1  0
 21 22  1  0
 22 23  1  0
 23 24  1  0
 24 25  1  0
 25 26  1  0
 26 27  1  0
 27 28  1  0
 28 29  1  0
 29 30  1  0
 30 31  1  0
 31 32  1  0
 31 33  1  0
 33 34  1  0
 34 35  1  0
 35 36  1  0
 34 37  1  0
 37 38  1  0
 11 39  2  0
 39 40  1  0
 40 41  1  0
 41 42  1  0
 42 43  1  0
 43 44  1  0
 44 45  1  0
 40  6  1  0
 39  7  1  0
 43  9  1  0
 41 10  1  0
 19 12  1  0
 38 21  1  0
 19 17  1  0
 36 29  1  0
 36 33  1  0
  1 46  1  0
  1 47  1  0
  3 48  1  0
  3 49  1  0
  3 50  1  0
  4 51  1  0
  4 52  1  0
  6 53  1  0
  7 54  1  0
 12 55  1  0
 13 56  1  0
 14 57  1  0
 14 58  1  0
 14 59  1  0
 16 60  1  0
 16 61  1  0
 17 62  1  0
 18 63  1  0
 18 64  1  0
 20 65  1  0
 20 66  1  0
 21 67  1  0
 22 68  1  0
 22 69  1  0
 23 70  1  0
 23 71  1  0
 24 72  1  0
 24 73  1  0
 25 74  1  0
 25 75  1  0
 26 76  1  0
 26 77  1  0
 27 78  1  0
 27 79  1  0
 28 80  1  0
 28 81  1  0
 30 82  1  0
 30 83  1  0
 31 84  1  0
 32 85  1  0
 32 86  1  0
 32 87  1  0
 33 88  1  0
 34 89  1  0
 35 90  1  0
 35 91  1  0
 36 92  1  0
 37 93  1  0
 38 94  1  0
 38 95  1  0
 40 96  1  0
 41 97  1  0
 42 98  1  0
 42 99  1  0
 43100  1  0
 44101  1  0
 44102  1  0
 45103  1  0
 45104  1  0
 45105  1  0
M  END
