
     RDKit          2D

 99107  0  0  0  0  0  0  0  0999 V2000
   15.6583  -21.3508   -1.8814 C   0  0  0  0  0  0  0  0  0  0  0  0
   15.7594  -22.5500   -2.7767 C   0  0  0  0  0  0  0  0  0  0  0  0
   15.8605  -23.7492   -3.6721 C   0  0  0  0  0  0  0  0  0  0  0  0
   16.4232  -22.8872   -4.7631 C   0  0  0  0  0  0  0  0  0  0  0  0
   16.3221  -21.6880   -3.8678 C   0  0  0  0  0  0  0  0  0  0  0  0
   16.8848  -20.8259   -4.9588 C   0  0  0  0  0  0  0  0  0  0  0  0
   17.4475  -19.9639   -6.0497 S   0  0  0  0  0  0  0  0  0  0  0  0
   17.8243  -20.5728   -7.3677 C   0  0  0  0  0  0  0  0  0  0  0  0
   18.2012  -21.1817   -8.6858 C   0  0  0  0  0  0  0  0  0  0  0  0
   18.5780  -21.7906  -10.0038 C   0  0  0  0  0  0  0  0  0  0  0  0
   18.9548  -22.3995  -11.3218 C   0  0  0  0  0  0  0  0  0  0  0  0
   18.5947  -23.8318  -11.0595 C   0  0  0  0  0  0  0  0  0  0  0  0
   18.1037  -25.0526  -10.3395 C   0  0  0  0  0  0  0  0  0  0  0  0
   18.0928  -23.7203   -9.6504 Mg  0  0  0  0  0  2  0  0  0  0  0  0
   19.4458  -21.1787  -12.0419 C   0  0  0  0  0  0  0  0  0  0  0  0
   19.4568  -22.5110  -12.7310 C   0  0  0  0  0  0  0  0  0  0  0  0
   19.9477  -21.2901  -13.4510 C   0  0  0  0  0  0  0  0  0  0  0  0
   20.1197  -22.3881  -14.4585 C   0  0  0  0  0  0  0  0  0  0  0  0
   20.0220  -23.8175  -14.9025 C   0  0  0  0  0  0  0  0  0  0  0  0
   19.4486  -24.4368  -13.6624 C   0  0  0  0  0  0  0  0  0  0  0  0
   20.5601  -22.7765  -15.8388 C   0  0  0  0  0  0  0  0  0  0  0  0
   21.1291  -22.3321  -17.1537 C   0  0  0  0  0  0  0  0  0  0  0  0
   21.6460  -21.1961  -17.9856 C   0  0  0  0  0  0  0  0  0  0  0  0
   21.7652  -22.3831  -18.8949 Cl  0  0  0  0  0  0  0  0  0  0  0  0
   22.2191  -20.6197  -19.2463 C   0  0  0  0  0  0  0  0  0  0  0  0
   22.3025  -21.8602  -20.0855 C   0  0  0  0  0  0  0  0  0  0  0  0
   22.3859  -23.1007  -20.9246 N   0  0  0  0  0  0  0  0  0  0  0  0
   21.9467  -19.7289  -18.0705 C   0  0  0  0  0  0  0  0  0  0  0  0
   21.9358  -18.3966  -17.3815 C   0  0  0  0  0  0  0  0  0  0  0  0
   21.6167  -17.6221  -16.1372 C   0  0  0  0  0  0  0  0  0  0  0  0
   21.0907  -17.6513  -14.7328 N   0  0  0  0  0  0  0  0  0  0  0  0
   20.5249  -18.4748  -13.6141 C   0  0  0  0  0  0  0  0  0  0  0  0
   20.6759  -17.0160  -13.2991 N   0  0  0  0  0  0  0  0  0  0  0  0
   20.5039  -15.9181  -12.2917 C   0  0  0  0  0  0  0  0  0  0  0  0
   20.0636  -15.5297  -10.9115 C   0  0  0  0  0  0  0  0  0  0  0  0
   19.4946  -15.9741   -9.5966 C   0  0  0  0  0  0  0  0  0  0  0  0
   19.0213  -15.7230   -8.1955 C   0  0  0  0  0  0  0  0  0  0  0  0
   18.9777  -17.1101   -8.7647 C   0  0  0  0  0  0  0  0  0  0  0  0
   18.9350  -18.4656   -9.3207 C   0  0  0  0  0  0  0  0  0  0  0  0
   18.9431  -19.4476   -9.8286 C   0  0  0  0  0  0  0  0  0  0  0  0
   19.1783  -20.0185  -10.7457 C   0  0  0  0  0  0  0  0  0  0  0  0
   19.5660  -19.9970  -11.7809 N   0  0  0  0  0  0  0  0  0  0  0  0
   19.4621  -22.0649  -12.5246 O   0  0  0  0  0  0  0  0  0  0  0  0
   20.0988  -19.8314  -13.1362 C   0  0  0  0  0  0  0  0  0  0  0  0
   15.5573  -20.1516   -0.9860 H   0  0  0  0  0  0  0  0  0  0  0  0
   16.4528  -20.5473   -2.8679 H   0  0  0  0  0  0  0  0  0  0  0  0
   14.8574  -22.0021   -0.7931 H   0  0  0  0  0  0  0  0  0  0  0  0
   15.1967  -23.4119   -1.6857 H   0  0  0  0  0  0  0  0  0  0  0  0
   15.2978  -24.6111   -2.5811 H   0  0  0  0  0  0  0  0  0  0  0  0
   15.9615  -24.9484   -4.5675 H   0  0  0  0  0  0  0  0  0  0  0  0
   16.5242  -24.0864   -5.6585 H   0  0  0  0  0  0  0  0  0  0  0  0
   16.9940  -22.1778   -5.9551 H   0  0  0  0  0  0  0  0  0  0  0  0
   16.2904  -20.3926   -3.1121 H   0  0  0  0  0  0  0  0  0  0  0  0
   16.9910  -22.0260   -5.8524 H   0  0  0  0  0  0  0  0  0  0  0  0
   16.8480  -19.5297   -4.2048 H   0  0  0  0  0  0  0  0  0  0  0  0
   17.3889  -21.9192   -6.8702 H   0  0  0  0  0  0  0  0  0  0  0  0
   18.1557  -19.1190   -7.5316 H   0  0  0  0  0  0  0  0  0  0  0  0
   18.8409  -19.8253   -8.7165 H   0  0  0  0  0  0  0  0  0  0  0  0
   17.4479  -22.4278   -8.3254 H   0  0  0  0  0  0  0  0  0  0  0  0
   18.9042  -20.3359  -10.1695 H   0  0  0  0  0  0  0  0  0  0  0  0
   18.0695  -22.9506   -9.2002 H   0  0  0  0  0  0  0  0  0  0  0  0
   18.9161  -24.6004  -12.3069 H   0  0  0  0  0  0  0  0  0  0  0  0
   18.3101  -26.0856  -11.4074 H   0  0  0  0  0  0  0  0  0  0  0  0
   17.5411  -25.9147   -9.2485 H   0  0  0  0  0  0  0  0  0  0  0  0
   19.4349  -19.8464  -11.3528 H   0  0  0  0  0  0  0  0  0  0  0  0
   19.1972  -23.9881  -12.7622 H   0  0  0  0  0  0  0  0  0  0  0  0
   19.5739  -23.3849  -13.4796 H   0  0  0  0  0  0  0  0  0  0  0  0
   20.1233  -25.0319  -15.7772 H   0  0  0  0  0  0  0  0  0  0  0  0
   18.8798  -25.2151  -12.5132 H   0  0  0  0  0  0  0  0  0  0  0  0
   19.4504  -25.7791  -14.3319 H   0  0  0  0  0  0  0  0  0  0  0  0
   19.1778  -23.5424  -12.4891 H   0  0  0  0  0  0  0  0  0  0  0  0
   20.5555  -24.1256  -16.4944 H   0  0  0  0  0  0  0  0  0  0  0  0
   20.9407  -23.8039  -17.3742 H   0  0  0  0  0  0  0  0  0  0  0  0
   21.4220  -23.1735  -18.3604 H   0  0  0  0  0  0  0  0  0  0  0  0
   22.7632  -19.6126  -20.2156 H   0  0  0  0  0  0  0  0  0  0  0  0
   22.8543  -21.0535  -21.2232 H   0  0  0  0  0  0  0  0  0  0  0  0
   21.7872  -22.9432  -19.1845 H   0  0  0  0  0  0  0  0  0  0  0  0
   23.6280  -23.9412  -20.8995 H   0  0  0  0  0  0  0  0  0  0  0  0
   21.2270  -23.5008  -21.7891 H   0  0  0  0  0  0  0  0  0  0  0  0
   22.5149  -18.9389  -19.2120 H   0  0  0  0  0  0  0  0  0  0  0  0
   22.4986  -18.0494  -18.7279 H   0  0  0  0  0  0  0  0  0  0  0  0
   22.3347  -17.0033  -17.7678 H   0  0  0  0  0  0  0  0  0  0  0  0
   22.1493  -16.5532  -17.0448 H   0  0  0  0  0  0  0  0  0  0  0  0
   21.6603  -16.2350  -15.5681 H   0  0  0  0  0  0  0  0  0  0  0  0
   21.2303  -16.1977  -14.3897 H   0  0  0  0  0  0  0  0  0  0  0  0
   21.0812  -17.5530  -14.6584 H   0  0  0  0  0  0  0  0  0  0  0  0
   21.2436  -16.2179  -14.4354 H   0  0  0  0  0  0  0  0  0  0  0  0
   19.6975  -14.4992   -9.4138 H   0  0  0  0  0  0  0  0  0  0  0  0
   19.2578  -14.2447   -8.1017 H   0  0  0  0  0  0  0  0  0  0  0  0
   18.4659  -15.9853   -6.8271 H   0  0  0  0  0  0  0  0  0  0  0  0
   18.4580  -17.0993   -7.3575 H   0  0  0  0  0  0  0  0  0  0  0  0
   18.2626  -18.0925   -7.3220 H   0  0  0  0  0  0  0  0  0  0  0  0
   18.1069  -19.3333   -7.5164 H   0  0  0  0  0  0  0  0  0  0  0  0
   18.1426  -20.0791   -7.9817 H   0  0  0  0  0  0  0  0  0  0  0  0
   18.2011  -21.1421   -8.6660 H   0  0  0  0  0  0  0  0  0  0  0  0
   18.4388  -21.4742   -9.4716 H   0  0  0  0  0  0  0  0  0  0  0  0
   18.8263  -22.1537  -10.8532 H   0  0  0  0  0  0  0  0  0  0  0  0
   19.8222  -22.7247  -13.8227 H   0  0  0  0  0  0  0  0  0  0  0  0
   19.5424  -20.7532  -12.0918 H   0  0  0  0  0  0  0  0  0  0  0  0
  1  2  1  0
  2  3  1  0
  3  4  1  0
  4  5  1  0
  5  6  1  0
  6  7  1  0
  7  8  1  0
  8  9  1  0
  9 10  1  0
 10 11  1  0
 11 12  1  0
 12 13  1  0
 13 14  1  0
 11 15  1  0
 15 16  1  0
 16 17  1  0
 17 18  1  0
 18 19  1  0
 19 20  1  0
 19 21  1  0
 21 22  1  0
 22 23  1  0
 23 24  1  0
 23 25  1  0
 25 26  1  0
 26 27  1  0
 25 28  1  0
 28 29  1  0
 29 30  1  0
 30 31  1  0
 31 32  1  0
 32 33  1  0
 33 34  1  0
 34 35  3  0
 35 36  1  0
 36 37  1  0
 37 38  1  0
 38 39  1  0
 39 40  1  0
 40 41  1  0
 41 42  1  0
 42 43  1  0
 42 44  1  0
  5  2  1  0
 16 11  1  0
 44 17  1  0
 14 12  1  0
 17 15  1  0
 21 18  1  0
 28 23  1  0
 44 32  1  0
 38 36  1  0
  1 45  1  0
  1 46  1  0
  1 47  1  0
  2 48  1  0
  3 49  1  0
  3 50  1  0
  4 51  1  0
  4 52  1  0
  5 53  1  0
  6 54  1  0
  6 55  1  0
  8 56  1  0
  8 57  1  0
  9 58  1  0
  9 59  1  0
 10 60  1  0
 10 61  1  0
 12 62  1  0
 13 63  1  0
 13 64  1  0
 15 65  1  0
 16 66  1  0
 18 67  1  0
 19 68  1  0
 20 69  1  0
 20 70  1  0
 20 71  1  0
 21 72  1  0
 22 73  1  0
 22 74  1  0
 25 75  1  0
 26 76  1  0
 26 77  1  0
 27 78  1  0
 27 79  1  0
 28 80  1  0
 29 81  1  0
 29 82  1  0
 30 83  1  0
 30 84  1  0
 31 85  1  0
 32 86  1  0
 33 87  1  0
 36 88  1  0
 37 89  1  0
 37 90  1  0
 38 91  1  0
 39 92  1  0
 39 93  1  0
 40 94  1  0
 40 95  1  0
 41 96  1  0
 41 97  1  0
 43 98  1  0
 44 99  1  0
M  END
