
     RDKit          2D

102114  0  0  0  0  0  0  0  0999 V2000
   -0.6049   20.0772   11.7979 C   0  0  0  0  0  0  0  0  0  0  0  0
    0.3807   20.9819   11.1194 C   0  0  0  0  0  0  0  0  0  0  0  0
    1.3663   21.8864   10.4411 C   0  0  0  0  0  0  0  0  0  0  0  0
    0.1388   22.5794    9.9284 C   0  0  0  0  0  0  0  0  0  0  0  0
   -1.2411   23.0531    9.5798 N   0  0  0  0  0  0  0  0  0  0  0  0
   -2.4404   22.3329   10.1214 C   0  0  0  0  0  0  0  0  0  0  0  0
    0.5794   23.7279    9.0699 C   0  0  0  0  0  0  0  0  0  0  0  0
    2.0792   23.7447    9.0521 C   0  0  0  0  0  0  0  0  0  0  0  0
    2.5655   22.6066    9.8995 C   0  0  0  0  0  0  0  0  0  0  0  0
    0.5552   24.9301    8.1731 C   0  0  0  0  0  0  0  0  0  0  0  0
   -0.6722   25.6231    7.6604 C   0  0  0  0  0  0  0  0  0  0  0  0
   -2.0912   25.2356    7.9545 C   0  0  0  0  0  0  0  0  0  0  0  0
   -3.5101   24.8482    8.2485 C   0  0  0  0  0  0  0  0  0  0  0  0
   -2.5775   26.3738    7.1070 C   0  0  0  0  0  0  0  0  0  0  0  0
   -3.4787   27.3364    6.3920 C   0  0  0  0  0  0  0  0  0  0  0  0
   -2.6165   28.3189    5.6559 N   0  0  0  0  0  0  0  0  0  0  0  0
   -1.1827   27.9633    5.9161 C   0  0  0  0  0  0  0  0  0  0  0  0
   -1.1586   26.7612    6.8130 C   0  0  0  0  0  0  0  0  0  0  0  0
   -0.1452   27.5862    6.1938 C   0  0  0  0  0  0  0  0  0  0  0  0
    0.7081   28.0987    5.8084 C   0  0  0  0  0  0  0  0  0  0  0  0
    1.7754   28.1107    5.7958 C   0  0  0  0  0  0  0  0  0  0  0  0
    2.6489   27.6175    6.1606 O   0  0  0  0  0  0  0  0  0  0  0  0
    3.6948   26.8155    6.7553 C   0  0  0  0  0  0  0  0  0  0  0  0
    4.8940   27.5357    6.2137 C   0  0  0  0  0  0  0  0  0  0  0  0
    5.6231   28.5851    5.4282 C   0  0  0  0  0  0  0  0  0  0  0  0
    4.4587   29.3450    4.8654 C   0  0  0  0  0  0  0  0  0  0  0  0
    6.3939   27.5524    6.1960 C   0  0  0  0  0  0  0  0  0  0  0  0
    7.6213   26.8594    6.7087 C   0  0  0  0  0  0  0  0  0  0  0  0
    8.1077   25.7213    7.5561 C   0  0  0  0  0  0  0  0  0  0  0  0
    9.5697   25.9876    7.3522 C   0  0  0  0  0  0  0  0  0  0  0  0
    9.1292   24.8392    8.2107 C   0  0  0  0  0  0  0  0  0  0  0  0
    7.6672   24.5728    8.4145 C   0  0  0  0  0  0  0  0  0  0  0  0
    6.4680   23.8526    8.9561 C   0  0  0  0  0  0  0  0  0  0  0  0
    5.7390   22.8032    9.7416 C   0  0  0  0  0  0  0  0  0  0  0  0
    4.9682   23.8359    8.9739 C   0  0  0  0  0  0  0  0  0  0  0  0
    3.7406   24.5289    8.4612 C   0  0  0  0  0  0  0  0  0  0  0  0
    2.9308   24.9432    8.1549 O   0  0  0  0  0  0  0  0  0  0  0  0
    3.2543   25.6670    7.6137 C   0  0  0  0  0  0  0  0  0  0  0  0
    2.0550   24.9468    8.1553 C   0  0  0  0  0  0  0  0  0  0  0  0
    0.7297   24.3861    8.5783 C   0  0  0  0  0  0  0  0  0  0  0  0
   -1.5181   29.1357    5.0426 C   0  0  0  0  0  0  0  0  0  0  0  0
   -0.1366   29.6016    4.6902 C   0  0  0  0  0  0  0  0  0  0  0  0
   -2.3333   30.1463    4.2915 C   0  0  0  0  0  0  0  0  0  0  0  0
   -3.1486   31.1569    3.5404 C   0  0  0  0  0  0  0  0  0  0  0  0
   -1.5905   19.1726   12.4763 H   0  0  0  0  0  0  0  0  0  0  0  0
   -1.6069   20.9578   11.1121 H   0  0  0  0  0  0  0  0  0  0  0  0
    0.5257   19.3010   12.4056 H   0  0  0  0  0  0  0  0  0  0  0  0
    0.9132   20.5084   11.4768 H   0  0  0  0  0  0  0  0  0  0  0  0
   -0.7501   21.7683   10.5253 H   0  0  0  0  0  0  0  0  0  0  0  0
    2.3878   21.0042   11.0957 H   0  0  0  0  0  0  0  0  0  0  0  0
   -0.3307   22.0639   10.3147 H   0  0  0  0  0  0  0  0  0  0  0  0
   -1.2390   24.2554    8.6828 H   0  0  0  0  0  0  0  0  0  0  0  0
   -3.6395   21.6127   10.6629 H   0  0  0  0  0  0  0  0  0  0  0  0
   -3.1884   23.3799    9.3507 H   0  0  0  0  0  0  0  0  0  0  0  0
   -1.3998   21.4614   10.7601 H   0  0  0  0  0  0  0  0  0  0  0  0
   -0.9127   23.6064    9.1659 H   0  0  0  0  0  0  0  0  0  0  0  0
    3.5512   23.5111    9.2212 H   0  0  0  0  0  0  0  0  0  0  0  0
    3.9350   22.1137   10.2624 H   0  0  0  0  0  0  0  0  0  0  0  0
   -0.8830   24.4331    8.5489 H   0  0  0  0  0  0  0  0  0  0  0  0
   -1.7814   24.0588    8.8314 H   0  0  0  0  0  0  0  0  0  0  0  0
   -4.9291   24.4608    8.5426 H   0  0  0  0  0  0  0  0  0  0  0  0
   -4.3166   25.9998    7.7258 H   0  0  0  0  0  0  0  0  0  0  0  0
   -2.8634   23.6215    8.8202 H   0  0  0  0  0  0  0  0  0  0  0  0
   -3.9787   25.9469    7.4305 H   0  0  0  0  0  0  0  0  0  0  0  0
   -4.6934   26.6332    6.9209 H   0  0  0  0  0  0  0  0  0  0  0  0
   -4.6093   28.1283    5.8051 H   0  0  0  0  0  0  0  0  0  0  0  0
    0.2732   28.2501    5.6970 H   0  0  0  0  0  0  0  0  0  0  0  0
   -1.0279   29.0866    5.0775 H   0  0  0  0  0  0  0  0  0  0  0  0
   -2.1675   27.6025    6.1888 H   0  0  0  0  0  0  0  0  0  0  0  0
    0.9217   29.7783    4.5545 H   0  0  0  0  0  0  0  0  0  0  0  0
   -0.3558   29.6290    4.6705 H   0  0  0  0  0  0  0  0  0  0  0  0
    3.1801   29.3668    4.8536 H   0  0  0  0  0  0  0  0  0  0  0  0
    1.8524   29.8447    4.5017 H   0  0  0  0  0  0  0  0  0  0  0  0
    3.7753   28.0158    5.8595 H   0  0  0  0  0  0  0  0  0  0  0  0
    4.0354   28.5230    5.4802 H   0  0  0  0  0  0  0  0  0  0  0  0
    6.7565   29.3707    4.8381 H   0  0  0  0  0  0  0  0  0  0  0  0
    3.2942   30.1049    4.3026 H   0  0  0  0  0  0  0  0  0  0  0  0
    5.3733   30.4767    4.5011 H   0  0  0  0  0  0  0  0  0  0  0  0
    3.1044   28.7026    4.9227 H   0  0  0  0  0  0  0  0  0  0  0  0
    7.3596   28.4707    5.5074 H   0  0  0  0  0  0  0  0  0  0  0  0
    9.1071   27.0226    6.5817 H   0  0  0  0  0  0  0  0  0  0  0  0
    8.2334   27.9560    5.8884 H   0  0  0  0  0  0  0  0  0  0  0  0
    9.6766   27.1866    6.4573 H   0  0  0  0  0  0  0  0  0  0  0  0
   11.0583   25.8370    7.4594 H   0  0  0  0  0  0  0  0  0  0  0  0
   10.1506   23.9570    8.8652 H   0  0  0  0  0  0  0  0  0  0  0  0
    8.4603   23.5510    9.1741 H   0  0  0  0  0  0  0  0  0  0  0  0
    7.4701   22.9564    9.6213 H   0  0  0  0  0  0  0  0  0  0  0  0
    6.9033   22.0433   10.3045 H   0  0  0  0  0  0  0  0  0  0  0  0
    4.7337   21.9125   10.4097 H   0  0  0  0  0  0  0  0  0  0  0  0
    4.0025   22.9176    9.6624 H   0  0  0  0  0  0  0  0  0  0  0  0
    3.1526   23.4239    9.2877 H   0  0  0  0  0  0  0  0  0  0  0  0
   -0.5957   23.8255    9.0013 H   0  0  0  0  0  0  0  0  0  0  0  0
   -0.2725   25.2818    7.9125 H   0  0  0  0  0  0  0  0  0  0  0  0
    1.4320   23.3232    9.3700 H   0  0  0  0  0  0  0  0  0  0  0  0
    1.0626   30.3218    4.1486 H   0  0  0  0  0  0  0  0  0  0  0  0
   -0.5479   30.7585    3.8285 H   0  0  0  0  0  0  0  0  0  0  0  0
    0.9041   28.7339    5.3338 H   0  0  0  0  0  0  0  0  0  0  0  0
   -1.1829   30.9233    3.7232 H   0  0  0  0  0  0  0  0  0  0  0  0
   -3.5924   29.4877    4.7718 H   0  0  0  0  0  0  0  0  0  0  0  0
   -3.9638   32.1674    2.7893 H   0  0  0  0  0  0  0  0  0  0  0  0
   -4.4076   30.5013    4.0249 H   0  0  0  0  0  0  0  0  0  0  0  0
   -1.8894   31.8125    3.0558 H   0  0  0  0  0  0  0  0  0  0  0  0
  1  2  1  0
  2  3  1  0
  3  4  1  0
  4  5  1  0
  5  6  1  0
  4  7  1  0
  7  8  1  0
  8  9  1  0
  9 10  1  0
 10 11  1  0
 11 12  1  0
 12 13  1  0
 12 14  1  0
 14 15  1  0
 15 16  1  0
 16 17  1  0
 17 18  1  0
 18 19  1  0
 19 20  1  0
 20 21  1  0
 21 22  1  0
 22 23  1  0
 23 24  1  0
 24 25  1  0
 25 26  1  0
 25 27  1  0
 27 28  1  0
 28 29  1  0
 29 30  1  0
 30 31  1  0
 31 32  1  0
 32 33  1  0
 33 34  1  0
 34 35  1  0
 35 36  1  0
 36 37  1  0
 37 38  1  0
 38 39  1  0
 39 40  1  0
 17 41  1  0
 41 42  1  0
 41 43  1  0
 43 44  1  0
  9  3  1  0
 39 10  1  0
 10  7  1  0
 18 11  1  0
 38 23  1  0
 39  8  1  0
 18 14  1  0
 27 24  1  0
 31 29  1  0
 35 33  1  0
 38 36  1  0
 41 16  1  0
 32 29  1  0
  1 45  1  0
  1 46  1  0
  1 47  1  0
  2 48  1  0
  2 49  1  0
  3 50  1  0
  4 51  1  0
  5 52  1  0
  6 53  1  0
  6 54  1  0
  6 55  1  0
  7 56  1  0
  8 57  1  0
  9 58  1  0
 11 59  1  0
 12 60  1  0
 13 61  1  0
 13 62  1  0
 13 63  1  0
 14 64  1  0
 15 65  1  0
 15 66  1  0
 17 67  1  0
 19 68  1  0
 19 69  1  0
 20 70  1  0
 20 71  1  0
 21 72  1  0
 21 73  1  0
 23 74  1  0
 24 75  1  0
 25 76  1  0
 26 77  1  0
 26 78  1  0
 26 79  1  0
 27 80  1  0
 28 81  1  0
 28 82  1  0
 30 83  1  0
 30 84  1  0
 31 85  1  0
 32 86  1  0
 33 87  1  0
 34 88  1  0
 34 89  1  0
 35 90  1  0
 36 91  1  0
 40 92  1  0
 40 93  1  0
 40 94  1  0
 42 95  1  0
 42 96  1  0
 42 97  1  0
 43 98  1  0
 43 99  1  0
 44100  1  0
 44101  1  0
 44102  1  0
M  END
