
     RDKit          2D

 24 24  0  0  0  0  0  0  0  0999 V2000
   -1.9824   27.3609    2.5040 C   0  0  0  0  0  0  0  0  0  0  0  0
   -1.9318   26.7881    3.8894 N   0  0  0  0  0  0  0  0  0  0  0  0
   -0.6116   26.4318    4.5060 N   0  0  0  0  0  0  0  0  0  0  0  0
    0.0770   25.1028    4.4086 C   0  0  0  0  0  0  0  0  0  0  0  0
    1.3660   25.1917    5.1707 N   0  0  0  0  0  2  0  0  0  0  0  0
    1.4740   26.5756    5.7390 C   0  0  0  0  0  0  0  0  0  0  0  0
    2.7757   26.0767    6.2928 N   0  0  0  0  0  2  0  0  0  0  0  0
    1.8542   27.8553    6.4230 C   0  0  0  0  0  0  0  0  0  0  0  0
    2.2343   29.1349    7.1071 N   0  0  0  0  0  0  0  0  0  0  0  0
    3.1231   27.2191    6.9080 O   0  0  0  0  0  0  0  0  0  0  0  0
    0.2518   27.3421    5.3282 C   0  0  0  0  0  0  0  0  0  0  0  0
   -2.0330   27.9338    1.1186 H   0  0  0  0  0  0  0  0  0  0  0  0
   -1.8886   28.6599    2.8596 H   0  0  0  0  0  0  0  0  0  0  0  0
   -2.0936   25.9771    1.9360 H   0  0  0  0  0  0  0  0  0  0  0  0
   -3.2014   26.5715    4.6582 H   0  0  0  0  0  0  0  0  0  0  0  0
    0.5153   23.6936    4.1403 H   0  0  0  0  0  0  0  0  0  0  0  0
   -0.9304   24.6092    3.6577 H   0  0  0  0  0  0  0  0  0  0  0  0
    3.2140   24.6675    6.0244 H   0  0  0  0  0  0  0  0  0  0  0  0
    1.2095   28.2738    6.2115 H   0  0  0  0  0  0  0  0  0  0  0  0
    3.5233   29.2238    7.8691 H   0  0  0  0  0  0  0  0  0  0  0  0
    1.3255   30.3257    7.0291 H   0  0  0  0  0  0  0  0  0  0  0  0
    3.4284   25.7928    6.5581 H   0  0  0  0  0  0  0  0  0  0  0  0
   -0.8375   28.3426    5.0784 H   0  0  0  0  0  0  0  0  0  0  0  0
    0.5118   27.9902    5.7128 H   0  0  0  0  0  0  0  0  0  0  0  0
  1  2  1  0
  2  3  1  0
  3  4  1  0
  4  5  1  0
  5  6  1  0
  6  7  1  0
  6  8  1  0
  8  9  1  0
  8 10  1  0
  6 11  1  0
 11  3  1  0
  1 12  1  0
  1 13  1  0
  1 14  1  0
  2 15  1  0
  4 16  1  0
  4 17  1  0
  7 18  1  0
  8 19  1  0
  9 20  1  0
  9 21  1  0
 10 22  1  0
 11 23  1  0
 11 24  1  0
M  RAD  2   5   2   7   2
M  END
