
     RDKit          2D

 48 49  0  0  0  0  0  0  0  0999 V2000
   18.3965  -17.5467  -12.1785 C   0  0  0  0  0  0  0  0  0  0  0  0
   18.2053  -18.2738  -10.8805 C   0  0  0  0  0  0  0  0  0  0  0  0
   18.0141  -19.0010   -9.5826 C   0  0  0  0  0  0  0  0  0  0  0  0
   17.8230  -19.7281   -8.2845 C   0  0  0  0  0  0  0  0  0  0  0  0
   18.5376  -18.6252   -7.5615 O   0  0  0  0  0  0  0  0  0  0  0  0
   17.6318  -20.4552   -6.9866 C   0  0  0  0  0  0  0  0  0  0  0  0
   17.0024  -21.3035   -8.0516 C   0  0  0  0  0  0  0  0  0  0  0  0
   16.6898  -21.4556   -9.5108 O   0  0  0  0  0  0  0  0  0  0  0  0
   16.2710  -22.6044   -8.2015 C   0  0  0  0  0  0  0  0  0  0  0  0
   15.7796  -23.7493   -7.3663 C   0  0  0  0  0  0  0  0  0  0  0  0
   15.0655  -25.0682   -7.3436 C   0  0  0  0  0  0  0  0  0  0  0  0
   15.7583  -24.2024   -5.9365 O   0  0  0  0  0  0  0  0  0  0  0  0
   16.2169  -23.7517   -4.5813 C   0  0  0  0  0  0  0  0  0  0  0  0
   16.2815  -24.0577   -3.1142 C   0  0  0  0  0  0  0  0  0  0  0  0
   16.3461  -24.3638   -1.6473 O   0  0  0  0  0  0  0  0  0  0  0  0
   17.0218  -22.7744   -2.8792 O   0  0  0  0  0  0  0  0  0  0  0  0
   16.9410  -22.6082   -3.9348 C   0  0  0  0  0  0  0  0  0  0  0  0
   17.5917  -21.3068   -4.2995 C   0  0  0  0  0  0  0  0  0  0  0  0
   18.3232  -20.0059   -4.1496 C   0  0  0  0  0  0  0  0  0  0  0  0
   17.8645  -20.4565   -5.5047 C   0  0  0  0  0  0  0  0  0  0  0  0
   18.5877  -16.8196  -13.4765 H   0  0  0  0  0  0  0  0  0  0  0  0
   17.6836  -18.6505  -12.9019 H   0  0  0  0  0  0  0  0  0  0  0  0
   19.1094  -16.4429  -11.4551 H   0  0  0  0  0  0  0  0  0  0  0  0
   17.4947  -19.3789  -11.6043 H   0  0  0  0  0  0  0  0  0  0  0  0
   18.9160  -17.1688  -10.1568 H   0  0  0  0  0  0  0  0  0  0  0  0
   18.7475  -17.8181   -9.0232 H   0  0  0  0  0  0  0  0  0  0  0  0
   17.3273  -20.0066  -10.4583 H   0  0  0  0  0  0  0  0  0  0  0  0
   17.5048  -20.1368   -8.8906 H   0  0  0  0  0  0  0  0  0  0  0  0
   19.1204  -17.3807   -8.1628 H   0  0  0  0  0  0  0  0  0  0  0  0
   18.2896  -19.2832   -6.8594 H   0  0  0  0  0  0  0  0  0  0  0  0
   17.1827  -20.8008   -8.6435 H   0  0  0  0  0  0  0  0  0  0  0  0
   17.0368  -20.4989  -10.6129 H   0  0  0  0  0  0  0  0  0  0  0  0
   15.6439  -23.4468   -9.2727 H   0  0  0  0  0  0  0  0  0  0  0  0
   16.1977  -22.3135   -9.6713 H   0  0  0  0  0  0  0  0  0  0  0  0
   15.3175  -24.2072   -8.7179 H   0  0  0  0  0  0  0  0  0  0  0  0
   14.3514  -26.3871   -7.3208 H   0  0  0  0  0  0  0  0  0  0  0  0
   14.8787  -24.9927   -8.8299 H   0  0  0  0  0  0  0  0  0  0  0  0
   15.2523  -25.1438   -5.8572 H   0  0  0  0  0  0  0  0  0  0  0  0
   15.5299  -25.0709   -4.3863 H   0  0  0  0  0  0  0  0  0  0  0  0
   15.5789  -25.3769   -2.9874 H   0  0  0  0  0  0  0  0  0  0  0  0
   15.7341  -25.6264   -1.1168 H   0  0  0  0  0  0  0  0  0  0  0  0
   17.3359  -21.8679   -4.0321 H   0  0  0  0  0  0  0  0  0  0  0  0
   17.4639  -22.0164   -2.6595 H   0  0  0  0  0  0  0  0  0  0  0  0
   16.8469  -23.1815   -2.5519 H   0  0  0  0  0  0  0  0  0  0  0  0
   17.9082  -21.1471   -2.8420 H   0  0  0  0  0  0  0  0  0  0  0  0
   18.5559  -20.0072   -2.6677 H   0  0  0  0  0  0  0  0  0  0  0  0
   18.9739  -18.7045   -4.5143 H   0  0  0  0  0  0  0  0  0  0  0  0
   18.5531  -19.1370   -5.6912 H   0  0  0  0  0  0  0  0  0  0  0  0
  1  2  1  0
  2  3  1  0
  3  4  1  0
  4  5  1  0
  4  6  1  0
  6  7  1  0
  7  8  1  0
  7  9  1  0
  9 10  1  0
 10 11  1  0
 10 12  1  0
 12 13  1  0
 13 14  1  0
 14 15  1  0
 14 16  1  0
 13 17  1  0
 17 18  1  0
 18 19  1  0
 19 20  1  0
 20  6  1  0
 20 18  1  0
  1 21  1  0
  1 22  1  0
  1 23  1  0
  2 24  1  0
  2 25  1  0
  3 26  1  0
  3 27  1  0
  4 28  1  0
  5 29  1  0
  6 30  1  0
  7 31  1  0
  8 32  1  0
  9 33  1  0
  9 34  1  0
 10 35  1  0
 11 36  1  0
 11 37  1  0
 11 38  1  0
 13 39  1  0
 14 40  1  0
 15 41  1  0
 16 42  1  0
 17 43  1  0
 17 44  1  0
 18 45  1  0
 19 46  1  0
 19 47  1  0
 20 48  1  0
M  END
