
     RDKit          2D

108112  0  0  0  0  0  0  0  0999 V2000
    2.1231   18.6568    1.9943 C   0  0  0  0  0  0  0  0  0  0  0  0
    0.8707   19.1054    1.3014 C   0  0  0  0  0  0  0  0  0  0  0  0
   -0.1098   18.0905    0.7927 O   0  0  0  0  0  0  0  0  0  0  0  0
    0.5986   20.5690    1.1170 C   0  0  0  0  0  0  0  0  0  0  0  0
    1.8882   20.8960    1.8099 N   0  0  0  0  0  0  0  0  0  0  0  0
    0.3266   22.0326    0.9326 C   0  0  0  0  0  0  0  0  0  0  0  0
    0.0546   23.4961    0.7483 O   0  0  0  0  0  0  0  0  0  0  0  0
   -1.1978   23.9448    0.0553 C   0  0  0  0  0  0  0  0  0  0  0  0
   -2.4502   24.3934   -0.6377 C   0  0  0  0  0  0  0  0  0  0  0  0
   -2.8562   22.9622   -0.8303 C   0  0  0  0  0  0  0  0  0  0  0  0
   -1.6037   22.5137   -0.1375 C   0  0  0  0  0  0  0  0  0  0  0  0
   -3.2623   21.5312   -1.0230 C   0  0  0  0  0  0  0  0  0  0  0  0
   -2.3805   20.4272   -0.5194 C   0  0  0  0  0  0  0  0  0  0  0  0
   -2.7865   18.9960   -0.7121 C   0  0  0  0  0  0  0  0  0  0  0  0
   -3.1925   17.5649   -0.9048 C   0  0  0  0  0  0  0  0  0  0  0  0
   -3.5264   19.0304    0.5922 O   0  0  0  0  0  0  0  0  0  0  0  0
   -2.0466   18.9617   -2.0164 C   0  0  0  0  0  0  0  0  0  0  0  0
       nan       nan       nan C   0  0  0  0  0  0  0  0  0  0  0  0
       nan       nan       nan C   0  0  0  0  0  0  0  0  0  0  0  0
       nan       nan       nan C   0  0  0  0  0  0  0  0  0  0  0  0
   -2.0442   25.8245   -0.4450 C   0  0  0  0  0  0  0  0  0  0  0  0
   -1.0664   26.8395    0.0683 N   0  0  0  0  0  0  0  0  0  0  0  0
   -0.6603   28.2707    0.2610 C   0  0  0  0  0  0  0  0  0  0  0  0
   -0.2544   29.7018    0.4537 C   0  0  0  0  0  0  0  0  0  0  0  0
    0.9086   29.0114    1.1027 C   0  0  0  0  0  0  0  0  0  0  0  0
    2.0246   29.8193    1.6957 C   0  0  0  0  0  0  0  0  0  0  0  0
    3.3123   30.1463    2.3921 C   0  0  0  0  0  0  0  0  0  0  0  0
    1.9778   31.3175    1.6397 N   0  0  0  0  0  0  0  0  0  0  0  0
    3.0938   32.1255    2.2327 C   0  0  0  0  0  0  0  0  0  0  0  0
    0.8149   32.0079    0.9907 C   0  0  0  0  0  0  0  0  0  0  0  0
   -0.0667   33.1119    0.4869 C   0  0  0  0  0  0  0  0  0  0  0  0
   -0.3011   31.2000    0.3977 C   0  0  0  0  0  0  0  0  0  0  0  0
   -0.6870   32.6295    0.1580 C   0  0  0  0  0  0  0  0  0  0  0  0
   -1.9457   32.1762   -0.5201 C   0  0  0  0  0  0  0  0  0  0  0  0
   -3.2045   31.7228   -1.1983 C   0  0  0  0  0  0  0  0  0  0  0  0
   -4.5191   31.7857   -1.9180 C   0  0  0  0  0  0  0  0  0  0  0  0
   -4.8151   30.3211   -2.0481 C   0  0  0  0  0  0  0  0  0  0  0  0
   -3.8021   33.0519   -1.5536 C   0  0  0  0  0  0  0  0  0  0  0  0
   -4.7649   34.0633   -2.1016 C   0  0  0  0  0  0  0  0  0  0  0  0
   -1.5600   30.7465   -0.2805 C   0  0  0  0  0  0  0  0  0  0  0  0
   -1.1742   29.3170   -0.0408 N   0  0  0  0  0  0  0  0  0  0  0  0
   -1.6061   28.6245    1.2177 C   0  0  0  0  0  0  0  0  0  0  0  0
   -2.0379   27.9320    2.4763 O   0  0  0  0  0  0  0  0  0  0  0  0
   -0.7918   25.3759    0.2480 C   0  0  0  0  0  0  0  0  0  0  0  0
    0.5230   25.3129    0.9672 I   0  0  0  0  0  0  0  0  0  0  0  0
    3.3755   18.2083    2.6873 H   0  0  0  0  0  0  0  0  0  0  0  0
    1.7143   17.2258    1.8066 H   0  0  0  0  0  0  0  0  0  0  0  0
    2.4528   19.4633    2.1543 H   0  0  0  0  0  0  0  0  0  0  0  0
   -0.7145   20.4229    0.4068 H   0  0  0  0  0  0  0  0  0  0  0  0
    2.4161   20.3794    2.1097 H   0  0  0  0  0  0  0  0  0  0  0  0
    2.4471   22.2616    2.0796 H   0  0  0  0  0  0  0  0  0  0  0  0
   -0.9163   21.5295    0.2602 H   0  0  0  0  0  0  0  0  0  0  0  0
    1.5695   22.5357    1.6051 H   0  0  0  0  0  0  0  0  0  0  0  0
   -1.2887   22.4476    0.0361 H   0  0  0  0  0  0  0  0  0  0  0  0
   -3.7027   24.8420   -1.3306 H   0  0  0  0  0  0  0  0  0  0  0  0
   -4.1087   23.4109   -1.5231 H   0  0  0  0  0  0  0  0  0  0  0  0
   -0.5801   21.5819    0.4405 H   0  0  0  0  0  0  0  0  0  0  0  0
   -1.6951   21.0165   -0.1560 H   0  0  0  0  0  0  0  0  0  0  0  0
   -0.9062   23.7937    0.2163 H   0  0  0  0  0  0  0  0  0  0  0  0
   -4.5739   21.3850   -1.7359 H   0  0  0  0  0  0  0  0  0  0  0  0
   -1.1358   20.9301    0.1497 H   0  0  0  0  0  0  0  0  0  0  0  0
   -3.5986   16.1338   -1.0975 H   0  0  0  0  0  0  0  0  0  0  0  0
   -2.0180   17.1528   -1.7419 H   0  0  0  0  0  0  0  0  0  0  0  0
   -4.4659   17.6282   -0.1146 H   0  0  0  0  0  0  0  0  0  0  0  0
   -4.2937   17.9073    1.2247 H   0  0  0  0  0  0  0  0  0  0  0  0
   -1.2898   20.2434   -1.8311 H   0  0  0  0  0  0  0  0  0  0  0  0
   -2.5192   17.6962   -2.6687 H   0  0  0  0  0  0  0  0  0  0  0  0
       nan       nan       nan H   0  0  0  0  0  0  0  0  0  0  0  0
       nan       nan       nan H   0  0  0  0  0  0  0  0  0  0  0  0
       nan       nan       nan H   0  0  0  0  0  0  0  0  0  0  0  0
       nan       nan       nan H   0  0  0  0  0  0  0  0  0  0  0  0
       nan       nan       nan H   0  0  0  0  0  0  0  0  0  0  0  0
       nan       nan       nan H   0  0  0  0  0  0  0  0  0  0  0  0
       nan       nan       nan H   0  0  0  0  0  0  0  0  0  0  0  0
   -3.2893   26.2979   -1.1345 H   0  0  0  0  0  0  0  0  0  0  0  0
   -1.9736   28.3596   -0.4583 H   0  0  0  0  0  0  0  0  0  0  0  0
    0.5330   27.6510    0.9257 H   0  0  0  0  0  0  0  0  0  0  0  0
   -1.5636   29.5294   -0.2578 H   0  0  0  0  0  0  0  0  0  0  0  0
    1.7901   27.9074    1.6064 H   0  0  0  0  0  0  0  0  0  0  0  0
    0.2312   27.7179    0.7591 H   0  0  0  0  0  0  0  0  0  0  0  0
    2.5186   28.4347    1.9935 H   0  0  0  0  0  0  0  0  0  0  0  0
    4.5999   30.4734    3.0886 H   0  0  0  0  0  0  0  0  0  0  0  0
    3.5867   28.6827    2.5720 H   0  0  0  0  0  0  0  0  0  0  0  0
    3.3575   31.6456    2.3861 H   0  0  0  0  0  0  0  0  0  0  0  0
    4.2099   32.9334    2.8257 H   0  0  0  0  0  0  0  0  0  0  0  0
    3.7880   30.8621    2.6475 H   0  0  0  0  0  0  0  0  0  0  0  0
    2.5409   33.4779    1.8933 H   0  0  0  0  0  0  0  0  0  0  0  0
    1.4922   33.3013    1.3343 H   0  0  0  0  0  0  0  0  0  0  0  0
   -0.8225   34.3315    0.0495 H   0  0  0  0  0  0  0  0  0  0  0  0
    0.9111   34.1270    1.0002 H   0  0  0  0  0  0  0  0  0  0  0  0
   -1.2288   32.3942   -0.1331 H   0  0  0  0  0  0  0  0  0  0  0  0
   -1.2233   33.9932   -0.1625 H   0  0  0  0  0  0  0  0  0  0  0  0
    0.4411   33.4154    0.7581 H   0  0  0  0  0  0  0  0  0  0  0  0
   -2.1752   33.6504   -0.6753 H   0  0  0  0  0  0  0  0  0  0  0  0
   -3.0441   30.2363   -1.0784 H   0  0  0  0  0  0  0  0  0  0  0  0
   -5.7844   32.1841   -2.6182 H   0  0  0  0  0  0  0  0  0  0  0  0
   -5.1112   28.8563   -2.1783 H   0  0  0  0  0  0  0  0  0  0  0  0
   -6.0799   30.6424   -2.7878 H   0  0  0  0  0  0  0  0  0  0  0  0
   -3.6596   29.6548   -1.3620 H   0  0  0  0  0  0  0  0  0  0  0  0
   -2.8553   34.1049   -1.0589 H   0  0  0  0  0  0  0  0  0  0  0  0
   -5.7276   35.0746   -2.6496 H   0  0  0  0  0  0  0  0  0  0  0  0
   -3.8657   35.1707   -1.6376 H   0  0  0  0  0  0  0  0  0  0  0  0
   -5.7746   33.0875   -2.6290 H   0  0  0  0  0  0  0  0  0  0  0  0
   -2.6880   29.9608   -0.8805 H   0  0  0  0  0  0  0  0  0  0  0  0
   -0.3566   28.5799   -1.0597 H   0  0  0  0  0  0  0  0  0  0  0  0
   -1.0366   27.2431    1.0857 H   0  0  0  0  0  0  0  0  0  0  0  0
   -2.3007   29.8755    1.6677 H   0  0  0  0  0  0  0  0  0  0  0  0
   -2.8556   28.6691    3.4951 H   0  0  0  0  0  0  0  0  0  0  0  0
  1  2  1  0
  2  3  2  0
  2  4  1  0
  4  5  1  0
  4  6  1  0
  6  7  1  0
  7  8  1  0
  8  9  1  0
  9 10  1  0
 10 11  1  0
 10 12  1  0
 12 13  2  3
 13 14  1  0
 14 15  1  0
 14 16  1  1
 14 17  1  0
 17 18  1  0
 18 19  1  0
 18 20  1  0
  9 21  1  0
 21 22  1  0
 22 23  1  0
 23 24  1  0
 24 25  1  0
 25 26  1  0
 26 27  1  0
 26 28  1  0
 28 29  1  0
 28 30  1  0
 30 31  1  0
 30 32  1  0
 32 33  1  1
 33 34  1  0
 34 35  1  0
 35 36  1  0
 36 37  1  0
 36 38  1  0
 38 39  1  0
 34 40  1  0
 40 41  1  0
 41 42  1  0
 42 43  1  0
 22 44  1  0
 44 45  1  1
 44  8  1  0
 44 21  1  0
 32 24  1  0
 38 35  1  0
 40 32  1  0
  1 46  1  0
  1 47  1  0
  1 48  1  0
  4 49  1  6
  5 50  1  0
  5 51  1  0
  6 52  1  0
  6 53  1  0
  8 54  1  6
  9 55  1  1
 10 56  1  6
 11 57  1  0
 11 58  1  0
 11 59  1  0
 12 60  1  0
 13 61  1  0
 15 62  1  0
 15 63  1  0
 15 64  1  0
 16 65  1  0
 17 66  1  0
 17 67  1  0
 18 68  1  0
 19 69  1  0
 19 70  1  0
 19 71  1  0
 20 72  1  0
 20 73  1  0
 20 74  1  0
 21 75  1  1
 23 76  1  0
 23 77  1  0
 24 78  1  1
 25 79  1  0
 25 80  1  0
 26 81  1  6
 27 82  1  0
 27 83  1  0
 27 84  1  0
 29 85  1  0
 29 86  1  0
 29 87  1  0
 30 88  1  1
 31 89  1  0
 31 90  1  0
 31 91  1  0
 33 92  1  0
 33 93  1  0
 34 94  1  6
 35 95  1  0
 36 96  1  1
 37 97  1  0
 37 98  1  0
 37 99  1  0
 38100  1  6
 39101  1  0
 39102  1  0
 39103  1  0
 40104  1  6
 41105  1  0
 42106  1  0
 42107  1  0
 43108  1  0
M  END
