
     RDKit          2D

 26 27  0  0  0  0  0  0  0  0999 V2000
   16.0135  -17.9625   -5.7134 O   0  0  0  0  0  0  0  0  0  0  0  0
   16.3585  -19.4208   -5.6496 C   0  0  0  0  0  0  0  0  0  0  0  0
   16.9032  -19.3530   -7.0455 C   0  0  0  0  0  0  0  0  0  0  0  0
   17.4480  -19.2853   -8.4414 C   0  0  0  0  0  0  0  0  0  0  0  0
   17.9927  -19.2175   -9.8374 C   0  0  0  0  0  0  0  0  0  0  0  0
   18.3869  -18.6550  -11.1708 C   0  0  0  0  0  0  0  0  0  0  0  0
   17.7484  -17.7693  -10.1423 C   0  0  0  0  0  0  0  0  0  0  0  0
   15.8138  -19.4886   -4.2535 C   0  0  0  0  0  0  0  0  0  0  0  0
   15.4196  -20.0512   -2.9201 C   0  0  0  0  0  0  0  0  0  0  0  0
   16.0580  -20.9369   -3.9486 C   0  0  0  0  0  0  0  0  0  0  0  0
   15.3708  -17.1389   -4.6370 H   0  0  0  0  0  0  0  0  0  0  0  0
   16.7265  -20.7162   -5.7456 H   0  0  0  0  0  0  0  0  0  0  0  0
   16.5587  -17.8945   -7.1091 H   0  0  0  0  0  0  0  0  0  0  0  0
   17.2478  -20.8116   -6.9818 H   0  0  0  0  0  0  0  0  0  0  0  0
   17.0807  -17.9898   -8.3450 H   0  0  0  0  0  0  0  0  0  0  0  0
   17.7922  -20.7439   -8.3778 H   0  0  0  0  0  0  0  0  0  0  0  0
   18.4262  -20.6422  -10.0173 H   0  0  0  0  0  0  0  0  0  0  0  0
   18.9573  -19.8843  -11.8138 H   0  0  0  0  0  0  0  0  0  0  0  0
   18.5830  -17.6655  -12.2810 H   0  0  0  0  0  0  0  0  0  0  0  0
   17.7228  -16.4723  -10.8952 H   0  0  0  0  0  0  0  0  0  0  0  0
   17.1710  -17.2277   -9.0488 H   0  0  0  0  0  0  0  0  0  0  0  0
   15.3254  -18.1136   -3.9061 H   0  0  0  0  0  0  0  0  0  0  0  0
   14.8492  -18.8218   -2.2771 H   0  0  0  0  0  0  0  0  0  0  0  0
   15.2235  -21.0407   -1.8099 H   0  0  0  0  0  0  0  0  0  0  0  0
   16.0837  -22.2339   -3.1957 H   0  0  0  0  0  0  0  0  0  0  0  0
   16.6355  -21.4785   -5.0421 H   0  0  0  0  0  0  0  0  0  0  0  0
  1  2  1  0
  2  3  1  0
  3  4  1  0
  4  5  1  0
  5  6  1  0
  6  7  1  0
  2  8  1  0
  8  9  1  0
  9 10  1  0
  7  5  1  0
 10  8  1  0
  1 11  1  0
  2 12  1  0
  3 13  1  0
  3 14  1  0
  4 15  1  0
  4 16  1  0
  5 17  1  0
  6 18  1  0
  6 19  1  0
  7 20  1  0
  7 21  1  0
  8 22  1  0
  9 23  1  0
  9 24  1  0
 10 25  1  0
 10 26  1  0
M  END
