
     RDKit          2D

111113  0  0  0  0  0  0  0  0999 V2000
   17.4965  -22.5955    3.6218 C   0  0  0  0  0  0  0  0  0  0  0  0
   17.0133  -21.7835    2.4568 C   0  0  0  0  0  0  0  0  0  0  0  0
   17.9899  -21.2869    1.4322 C   0  0  0  0  0  0  0  0  0  0  0  0
   18.9664  -20.7903    0.4077 N   0  0  0  0  0  0  0  0  0  0  0  0
   17.7909  -22.5416    0.6345 P   0  0  0  0  0  0  0  0  0  0  0  0
   18.1817  -23.9545    0.3166 C   0  0  0  0  0  0  0  0  0  0  0  0
   17.0556  -23.3019   -0.4290 C   0  0  0  0  0  0  0  0  0  0  0  0
   16.0654  -22.2596   -0.8569 C   0  0  0  0  0  0  0  0  0  0  0  0
   15.0752  -21.2172   -1.2847 C   0  0  0  0  0  0  0  0  0  0  0  0
   15.4208  -20.2631   -2.3894 C   0  0  0  0  0  0  0  0  0  0  0  0
   14.4306  -19.2207   -2.8172 C   0  0  0  0  0  0  0  0  0  0  0  0
   13.4404  -18.1784   -3.2451 C   0  0  0  0  0  0  0  0  0  0  0  0
   12.4502  -17.1361   -3.6729 C   0  0  0  0  0  0  0  0  0  0  0  0
   11.4600  -16.0937   -4.1008 N   0  0  0  0  0  0  0  0  0  0  0  0
   14.1592  -18.0329   -4.5537 C   0  0  0  0  0  0  0  0  0  0  0  0
   14.8778  -17.8873   -5.8622 C   0  0  0  0  0  0  0  0  0  0  0  0
   15.5965  -17.7417   -7.1708 C   0  0  0  0  0  0  0  0  0  0  0  0
   16.3152  -17.5961   -8.4793 C   0  0  0  0  0  0  0  0  0  0  0  0
   17.0339  -17.4505   -9.7878 C   0  0  0  0  0  0  0  0  0  0  0  0
   17.5304  -17.0922  -11.1571 C   0  0  0  0  0  0  0  0  0  0  0  0
   18.7497  -17.9191  -11.4393 C   0  0  0  0  0  0  0  0  0  0  0  0
   19.0067  -18.7886  -10.2443 C   0  0  0  0  0  0  0  0  0  0  0  0
   17.9463  -18.4990   -9.2237 C   0  0  0  0  0  0  0  0  0  0  0  0
   18.6685  -19.5320   -8.4106 C   0  0  0  0  0  0  0  0  0  0  0  0
   19.9161  -18.8622  -11.4349 C   0  0  0  0  0  0  0  0  0  0  0  0
   20.8834  -19.9055  -10.9597 C   0  0  0  0  0  0  0  0  0  0  0  0
   21.8506  -20.9489  -10.4845 C   0  0  0  0  0  0  0  0  0  0  0  0
   21.6359  -19.7968  -12.2527 C   0  0  0  0  0  0  0  0  0  0  0  0
   22.6036  -20.8397  -11.7772 N   0  0  0  0  0  0  0  0  0  0  0  0
   22.3884  -19.6880  -13.5457 C   0  0  0  0  0  0  0  0  0  0  0  0
   21.4233  -18.6420  -14.0195 O   0  0  0  0  0  0  0  0  0  0  0  0
   23.1409  -19.5792  -14.8387 C   0  0  0  0  0  0  0  0  0  0  0  0
   23.8935  -19.4705  -16.1318 C   0  0  0  0  0  0  0  0  0  0  0  0
   24.6460  -19.3617  -17.4247 C   0  0  0  0  0  0  0  0  0  0  0  0
   24.1846  -18.4037  -18.4828 C   0  0  0  0  0  0  0  0  0  0  0  0
   24.9370  -18.2950  -19.7757 C   0  0  0  0  0  0  0  0  0  0  0  0
   25.6896  -18.1862  -21.0688 C   0  0  0  0  0  0  0  0  0  0  0  0
   24.0592  -19.3530  -20.3757 C   0  0  0  0  0  0  0  0  0  0  0  0
   23.1813  -20.4110  -20.9756 C   0  0  0  0  0  0  0  0  0  0  0  0
   22.2841  -18.4152  -15.2395 C   0  0  0  0  0  0  0  0  0  0  0  0
   21.4272  -17.2510  -15.6403 C   0  0  0  0  0  0  0  0  0  0  0  0
   23.0329  -18.3099  -16.5349 O   0  0  0  0  0  0  0  0  0  0  0  0
   24.1492  -19.2657  -16.8357 C   0  0  0  0  0  0  0  0  0  0  0  0
   16.5199  -23.0921    4.6464 H   0  0  0  0  0  0  0  0  0  0  0  0
   18.9562  -22.9108    3.7623 H   0  0  0  0  0  0  0  0  0  0  0  0
   16.2618  -21.5682    2.3008 H   0  0  0  0  0  0  0  0  0  0  0  0
   18.1888  -20.0323    2.2299 H   0  0  0  0  0  0  0  0  0  0  0  0
   20.4262  -21.1058    0.5481 H   0  0  0  0  0  0  0  0  0  0  0  0
   18.4833  -19.9783   -0.7573 H   0  0  0  0  0  0  0  0  0  0  0  0
   18.1814  -25.3034   -0.3394 H   0  0  0  0  0  0  0  0  0  0  0  0
   19.3080  -24.1386    1.2901 H   0  0  0  0  0  0  0  0  0  0  0  0
   16.6642  -24.4242   -1.3440 H   0  0  0  0  0  0  0  0  0  0  0  0
   16.2676  -21.9226   -0.1632 H   0  0  0  0  0  0  0  0  0  0  0  0
   15.8037  -23.0264   -2.1192 H   0  0  0  0  0  0  0  0  0  0  0  0
   13.7395  -21.1290   -0.6079 H   0  0  0  0  0  0  0  0  0  0  0  0
   16.7566  -20.3513   -3.0662 H   0  0  0  0  0  0  0  0  0  0  0  0
   15.4937  -18.8862   -3.8212 H   0  0  0  0  0  0  0  0  0  0  0  0
   13.4812  -19.6859   -1.7532 H   0  0  0  0  0  0  0  0  0  0  0  0
   12.7217  -18.3240   -1.9365 H   0  0  0  0  0  0  0  0  0  0  0  0
   13.4230  -16.6327   -4.6978 H   0  0  0  0  0  0  0  0  0  0  0  0
   11.3640  -17.5087   -2.7078 H   0  0  0  0  0  0  0  0  0  0  0  0
   11.4604  -14.7448   -3.4447 H   0  0  0  0  0  0  0  0  0  0  0  0
   10.4695  -16.4003   -5.1846 H   0  0  0  0  0  0  0  0  0  0  0  0
   13.2628  -16.9819   -5.1387 H   0  0  0  0  0  0  0  0  0  0  0  0
   15.2307  -19.0482   -4.2877 H   0  0  0  0  0  0  0  0  0  0  0  0
   15.8485  -18.9531   -5.4477 H   0  0  0  0  0  0  0  0  0  0  0  0
   13.9072  -16.8215   -6.2767 H   0  0  0  0  0  0  0  0  0  0  0  0
   15.1111  -16.3266   -7.2799 H   0  0  0  0  0  0  0  0  0  0  0  0
   16.0819  -19.1568   -7.0616 H   0  0  0  0  0  0  0  0  0  0  0  0
   16.7239  -19.0126   -8.2028 H   0  0  0  0  0  0  0  0  0  0  0  0
   15.8151  -16.1869   -8.5972 H   0  0  0  0  0  0  0  0  0  0  0  0
   15.9712  -16.4325  -10.0785 H   0  0  0  0  0  0  0  0  0  0  0  0
   16.3640  -16.1491  -11.1615 H   0  0  0  0  0  0  0  0  0  0  0  0
   17.7831  -16.5366  -12.5274 H   0  0  0  0  0  0  0  0  0  0  0  0
   19.0024  -17.3635  -12.8095 H   0  0  0  0  0  0  0  0  0  0  0  0
   19.7290  -19.8216   -9.4312 H   0  0  0  0  0  0  0  0  0  0  0  0
   17.1438  -18.5535   -7.9575 H   0  0  0  0  0  0  0  0  0  0  0  0
   19.3908  -20.5651   -7.5974 H   0  0  0  0  0  0  0  0  0  0  0  0
   17.6738  -19.3549   -7.3019 H   0  0  0  0  0  0  0  0  0  0  0  0
   19.8085  -19.9539   -9.2895 H   0  0  0  0  0  0  0  0  0  0  0  0
   20.3533  -18.4527  -12.8101 H   0  0  0  0  0  0  0  0  0  0  0  0
   20.3873  -20.2635   -9.5902 H   0  0  0  0  0  0  0  0  0  0  0  0
   22.7189  -21.9978   -9.8553 H   0  0  0  0  0  0  0  0  0  0  0  0
   22.8152  -21.0953  -11.6239 H   0  0  0  0  0  0  0  0  0  0  0  0
   21.0977  -21.0581   -9.1918 H   0  0  0  0  0  0  0  0  0  0  0  0
   20.7671  -18.7484  -12.8822 H   0  0  0  0  0  0  0  0  0  0  0  0
   23.7869  -21.3804  -12.5237 H   0  0  0  0  0  0  0  0  0  0  0  0
   22.8822  -21.7186  -10.5941 H   0  0  0  0  0  0  0  0  0  0  0  0
   23.4381  -20.7129  -13.2331 H   0  0  0  0  0  0  0  0  0  0  0  0
   21.0034  -17.6974  -15.1063 H   0  0  0  0  0  0  0  0  0  0  0  0
   23.9978  -20.7434  -14.4379 H   0  0  0  0  0  0  0  0  0  0  0  0
   25.0251  -20.4427  -15.9760 H   0  0  0  0  0  0  0  0  0  0  0  0
   22.9149  -18.4413  -16.6148 H   0  0  0  0  0  0  0  0  0  0  0  0
   25.8600  -20.2109  -17.6597 H   0  0  0  0  0  0  0  0  0  0  0  0
   23.0474  -17.4308  -18.5832 H   0  0  0  0  0  0  0  0  0  0  0  0
   25.8149  -17.2370  -19.1759 H   0  0  0  0  0  0  0  0  0  0  0  0
   26.4421  -18.0775  -22.3618 H   0  0  0  0  0  0  0  0  0  0  0  0
   26.5564  -17.1160  -20.4743 H   0  0  0  0  0  0  0  0  0  0  0  0
   24.9210  -19.2351  -21.8164 H   0  0  0  0  0  0  0  0  0  0  0  0
   24.6849  -19.3585  -21.7389 H   0  0  0  0  0  0  0  0  0  0  0  0
   23.3209  -19.4774  -19.0759 H   0  0  0  0  0  0  0  0  0  0  0  0
   22.3033  -21.4690  -21.5755 H   0  0  0  0  0  0  0  0  0  0  0  0
   23.9497  -20.3200  -22.2605 H   0  0  0  0  0  0  0  0  0  0  0  0
   22.3115  -20.6303  -19.7733 H   0  0  0  0  0  0  0  0  0  0  0  0
   21.3501  -18.2355  -14.0796 H   0  0  0  0  0  0  0  0  0  0  0  0
   20.5703  -16.0870  -16.0411 H   0  0  0  0  0  0  0  0  0  0  0  0
   21.8166  -16.7380  -16.9950 H   0  0  0  0  0  0  0  0  0  0  0  0
   20.6811  -17.3537  -14.3431 H   0  0  0  0  0  0  0  0  0  0  0  0
   25.2304  -20.2964  -16.9730 H   0  0  0  0  0  0  0  0  0  0  0  0
   24.6330  -18.8437  -18.1913 H   0  0  0  0  0  0  0  0  0  0  0  0
   24.0668  -20.0505  -15.5600 H   0  0  0  0  0  0  0  0  0  0  0  0
  1  2  2  3
  2  3  1  0
  3  4  1  0
  3  5  1  0
  5  6  1  0
  6  7  1  0
  7  8  1  0
  8  9  1  0
  9 10  2  3
 10 11  1  0
 11 12  1  0
 12 13  1  0
 13 14  1  0
 12 15  1  0
 15 16  1  0
 16 17  1  0
 17 18  1  0
 18 19  1  0
 19 20  1  0
 20 21  1  0
 21 22  1  0
 22 23  1  0
 23 24  1  0
 22 25  1  0
 25 26  1  0
 26 27  1  0
 26 28  1  0
 28 29  1  0
 28 30  1  0
 30 31  1  0
 30 32  1  0
 32 33  1  0
 33 34  1  0
 34 35  2  3
 35 36  1  0
 36 37  1  0
 36 38  1  0
 38 39  1  0
 32 40  1  0
 40 41  1  0
 40 42  1  0
 42 43  1  0
  7  5  1  0
 23 19  1  0
 25 21  1  0
  1 44  1  0
  1 45  1  0
  2 46  1  0
  3 47  1  6
  4 48  1  0
  4 49  1  0
  6 50  1  0
  6 51  1  0
  7 52  1  6
  8 53  1  0
  8 54  1  0
  9 55  1  0
 10 56  1  0
 11 57  1  0
 11 58  1  0
 12 59  1  6
 13 60  1  0
 13 61  1  0
 14 62  1  0
 14 63  1  0
 15 64  1  0
 15 65  1  0
 16 66  1  0
 16 67  1  0
 17 68  1  0
 17 69  1  0
 18 70  1  0
 18 71  1  0
 19 72  1  1
 20 73  1  0
 20 74  1  0
 21 75  1  6
 22 76  1  6
 23 77  1  1
 24 78  1  0
 24 79  1  0
 24 80  1  0
 25 81  1  6
 26 82  1  6
 27 83  1  0
 27 84  1  0
 27 85  1  0
 28 86  1  1
 29 87  1  0
 29 88  1  0
 30 89  1  1
 31 90  1  0
 32 91  1  1
 33 92  1  0
 33 93  1  0
 34 94  1  0
 35 95  1  0
 36 96  1  6
 37 97  1  0
 37 98  1  0
 37 99  1  0
 38100  1  0
 38101  1  0
 39102  1  0
 39103  1  0
 39104  1  0
 40105  1  6
 41106  1  0
 41107  1  0
 41108  1  0
 43109  1  0
 43110  1  0
 43111  1  0
M  END
