
     RDKit          2D

 95 98  0  0  0  0  0  0  0  0999 V2000
   18.9611   21.0229    6.7232 C   0  0  0  0  0  0  0  0  0  0  0  0
   17.7052   21.7942    7.0019 C   0  0  0  0  0  0  0  0  0  0  0  0
   16.4492   22.5655    7.2804 C   0  0  0  0  0  0  0  0  0  0  0  0
   15.1933   23.3368    7.5590 C   0  0  0  0  0  0  0  0  0  0  0  0
   13.9372   24.1081    7.8378 C   0  0  0  0  0  0  0  0  0  0  0  0
   12.6813   24.8794    8.1164 C   0  0  0  0  0  0  0  0  0  0  0  0
   11.4254   25.6507    8.3950 C   0  0  0  0  0  0  0  0  0  0  0  0
   11.7852   24.8445    9.6078 C   0  0  0  0  0  0  0  0  0  0  0  0
   11.4368   24.4567   11.0142 C   0  0  0  0  0  0  0  0  0  0  0  0
   10.4907   24.6104   12.1680 C   0  0  0  0  0  0  0  0  0  0  0  0
    9.2473   25.2568   12.7027 C   0  0  0  0  0  0  0  0  0  0  0  0
    8.1013   26.1907   12.4487 C   0  0  0  0  0  0  0  0  0  0  0  0
    7.0469   26.4790   13.4760 C   0  0  0  0  0  0  0  0  0  0  0  0
    6.3622   27.4039   12.5138 C   0  0  0  0  0  0  0  0  0  0  0  0
    5.6776   28.3287   11.5515 C   0  0  0  0  0  0  0  0  0  0  0  0
    4.6736   29.2964   10.9987 N   0  0  0  0  0  0  0  0  0  0  0  0
    4.5204   28.7732   12.3962 C   0  0  0  0  0  0  0  0  0  0  0  0
    3.2650   29.4852   12.8047 C   0  0  0  0  0  0  0  0  0  0  0  0
    2.0096   30.1973   13.2133 C   0  0  0  0  0  0  0  0  0  0  0  0
    0.7542   30.9094   13.6218 C   0  0  0  0  0  0  0  0  0  0  0  0
    1.9460   30.8574   11.8678 C   0  0  0  0  0  0  0  0  0  0  0  0
    1.8826   31.5174   10.5224 C   0  0  0  0  0  0  0  0  0  0  0  0
    1.8191   32.1775    9.1769 C   0  0  0  0  0  0  0  0  0  0  0  0
    1.7557   32.8375    7.8314 C   0  0  0  0  0  0  0  0  0  0  0  0
    0.3717   32.4997    9.4032 C   0  0  0  0  0  0  0  0  0  0  0  0
   -1.0757   32.8218    9.6296 C   0  0  0  0  0  0  0  0  0  0  0  0
   -1.0065   33.8787    8.5674 C   0  0  0  0  0  0  0  0  0  0  0  0
   -2.4539   34.2009    8.7937 C   0  0  0  0  0  0  0  0  0  0  0  0
   -2.5231   33.1440    9.8559 C   0  0  0  0  0  0  0  0  0  0  0  0
    7.4166   27.1156   11.4864 C   0  0  0  0  0  0  0  0  0  0  0  0
    7.4106   27.7378   10.1216 C   0  0  0  0  0  0  0  0  0  0  0  0
    8.0851   27.8598    8.7875 C   0  0  0  0  0  0  0  0  0  0  0  0
    9.2262   27.4428    7.9076 C   0  0  0  0  0  0  0  0  0  0  0  0
   10.4713   26.6193    7.7613 C   0  0  0  0  0  0  0  0  0  0  0  0
   20.2171   20.2515    6.4446 H   0  0  0  0  0  0  0  0  0  0  0  0
   18.9066   20.4358    8.1026 H   0  0  0  0  0  0  0  0  0  0  0  0
   19.0157   21.6099    5.3440 H   0  0  0  0  0  0  0  0  0  0  0  0
   17.6521   21.2092    8.3820 H   0  0  0  0  0  0  0  0  0  0  0  0
   17.7583   22.3791    5.6217 H   0  0  0  0  0  0  0  0  0  0  0  0
   16.5033   23.1520    5.9009 H   0  0  0  0  0  0  0  0  0  0  0  0
   16.3950   21.9790    8.6600 H   0  0  0  0  0  0  0  0  0  0  0  0
   15.2526   23.9307    6.1829 H   0  0  0  0  0  0  0  0  0  0  0  0
   15.1339   22.7429    8.9352 H   0  0  0  0  0  0  0  0  0  0  0  0
   13.8841   23.5228    9.2178 H   0  0  0  0  0  0  0  0  0  0  0  0
   13.9905   24.6934    6.4576 H   0  0  0  0  0  0  0  0  0  0  0  0
   12.6882   24.4573    8.7926 H   0  0  0  0  0  0  0  0  0  0  0  0
   12.8084   25.5144    6.9319 H   0  0  0  0  0  0  0  0  0  0  0  0
   11.9660   25.8192    7.1697 H   0  0  0  0  0  0  0  0  0  0  0  0
   12.5342   24.1405    9.9806 H   0  0  0  0  0  0  0  0  0  0  0  0
   12.6366   24.5066    9.0105 H   0  0  0  0  0  0  0  0  0  0  0  0
   12.0480   23.5536   12.0442 H   0  0  0  0  0  0  0  0  0  0  0  0
   12.6909   23.6699   10.7729 H   0  0  0  0  0  0  0  0  0  0  0  0
   10.4110   24.0403   13.5531 H   0  0  0  0  0  0  0  0  0  0  0  0
   11.4983   23.6429   12.7147 H   0  0  0  0  0  0  0  0  0  0  0  0
    8.5019   25.2006   14.0033 H   0  0  0  0  0  0  0  0  0  0  0  0
    9.6884   24.4159   13.8639 H   0  0  0  0  0  0  0  0  0  0  0  0
    7.1724   27.1584   11.7772 H   0  0  0  0  0  0  0  0  0  0  0  0
    5.9926   26.7673   14.5033 H   0  0  0  0  0  0  0  0  0  0  0  0
    7.5980   25.5961   14.5562 H   0  0  0  0  0  0  0  0  0  0  0  0
    5.3993   27.5772   13.6507 H   0  0  0  0  0  0  0  0  0  0  0  0
    6.3622   28.4416   10.2217 H   0  0  0  0  0  0  0  0  0  0  0  0
    4.1824   30.1571    9.8728 H   0  0  0  0  0  0  0  0  0  0  0  0
    4.6517   28.0800   13.7199 H   0  0  0  0  0  0  0  0  0  0  0  0
    3.3310   28.8287   14.1518 H   0  0  0  0  0  0  0  0  0  0  0  0
    3.3524   30.0501   11.4179 H   0  0  0  0  0  0  0  0  0  0  0  0
    2.0730   29.5372   14.5588 H   0  0  0  0  0  0  0  0  0  0  0  0
   -0.5013   31.6214   14.0304 H   0  0  0  0  0  0  0  0  0  0  0  0
    0.8121   30.2416   14.9638 H   0  0  0  0  0  0  0  0  0  0  0  0
    0.5435   31.6589   12.3397 H   0  0  0  0  0  0  0  0  0  0  0  0
    0.6924   31.6448   12.1094 H   0  0  0  0  0  0  0  0  0  0  0  0
    3.1842   30.2308   11.2982 H   0  0  0  0  0  0  0  0  0  0  0  0
    0.5007   31.8876   10.9730 H   0  0  0  0  0  0  0  0  0  0  0  0
    3.2827   31.0634   10.2336 H   0  0  0  0  0  0  0  0  0  0  0  0
    3.2665   31.8553    8.9506 H   0  0  0  0  0  0  0  0  0  0  0  0
    1.6921   33.4977    6.4859 H   0  0  0  0  0  0  0  0  0  0  0  0
    3.0132   32.1286    7.4243 H   0  0  0  0  0  0  0  0  0  0  0  0
    0.4997   33.6217    8.0715 H   0  0  0  0  0  0  0  0  0  0  0  0
    0.2697   33.6029    8.3921 H   0  0  0  0  0  0  0  0  0  0  0  0
    0.1209   31.4749   10.4695 H   0  0  0  0  0  0  0  0  0  0  0  0
   -1.1449   31.7650   10.6917 H   0  0  0  0  0  0  0  0  0  0  0  0
   -0.9373   34.9356    7.5053 H   0  0  0  0  0  0  0  0  0  0  0  0
   -2.3942   34.4470    8.5300 H   0  0  0  0  0  0  0  0  0  0  0  0
   -3.9013   34.5231    9.0200 H   0  0  0  0  0  0  0  0  0  0  0  0
   -2.3848   35.2578    7.7316 H   0  0  0  0  0  0  0  0  0  0  0  0
   -2.5922   32.0870   10.9180 H   0  0  0  0  0  0  0  0  0  0  0  0
   -3.9705   33.4662   10.0822 H   0  0  0  0  0  0  0  0  0  0  0  0
    6.3104   28.0655   11.1343 H   0  0  0  0  0  0  0  0  0  0  0  0
    6.5146   28.7030    9.4036 H   0  0  0  0  0  0  0  0  0  0  0  0
    6.1590   28.4222   10.5853 H   0  0  0  0  0  0  0  0  0  0  0  0
    7.8082   28.6275    7.5289 H   0  0  0  0  0  0  0  0  0  0  0  0
    6.9066   28.7739    8.6284 H   0  0  0  0  0  0  0  0  0  0  0  0
    9.6561   27.7692    6.5081 H   0  0  0  0  0  0  0  0  0  0  0  0
    8.4713   28.3851    7.0176 H   0  0  0  0  0  0  0  0  0  0  0  0
   11.4717   26.4008    6.6651 H   0  0  0  0  0  0  0  0  0  0  0  0
   10.3797   27.2907    6.4231 H   0  0  0  0  0  0  0  0  0  0  0  0
  1  2  1  0
  2  3  1  0
  3  4  1  0
  4  5  1  0
  5  6  1  0
  6  7  1  0
  7  8  1  0
  8  9  1  0
  9 10  1  0
 10 11  1  0
 11 12  1  0
 12 13  1  0
 13 14  1  0
 14 15  1  0
 15 16  1  0
 16 17  1  0
 17 18  1  0
 18 19  1  0
 19 20  1  0
 19 21  1  0
 21 22  1  0
 22 23  1  0
 23 24  1  0
 23 25  1  0
 25 26  1  0
 26 27  1  0
 27 28  1  0
 28 29  1  0
 14 30  1  0
 30 31  1  0
 31 32  1  0
 32 33  1  0
 33 34  1  0
 34  7  1  0
 30 12  1  0
 17 15  1  0
 29 26  1  0
  1 35  1  0
  1 36  1  0
  1 37  1  0
  2 38  1  0
  2 39  1  0
  3 40  1  0
  3 41  1  0
  4 42  1  0
  4 43  1  0
  5 44  1  0
  5 45  1  0
  6 46  1  0
  6 47  1  0
  7 48  1  0
  8 49  1  0
  8 50  1  0
  9 51  1  0
  9 52  1  0
 10 53  1  0
 10 54  1  0
 11 55  1  0
 11 56  1  0
 12 57  1  0
 13 58  1  0
 13 59  1  0
 14 60  1  0
 15 61  1  0
 16 62  1  0
 17 63  1  0
 18 64  1  0
 18 65  1  0
 19 66  1  0
 20 67  1  0
 20 68  1  0
 20 69  1  0
 21 70  1  0
 21 71  1  0
 22 72  1  0
 22 73  1  0
 23 74  1  0
 24 75  1  0
 24 76  1  0
 24 77  1  0
 25 78  1  0
 25 79  1  0
 26 80  1  0
 27 81  1  0
 27 82  1  0
 28 83  1  0
 28 84  1  0
 29 85  1  0
 29 86  1  0
 30 87  1  0
 31 88  1  0
 31 89  1  0
 32 90  1  0
 32 91  1  0
 33 92  1  0
 33 93  1  0
 34 94  1  0
 34 95  1  0
M  END
