
     RDKit          2D

105114  0  0  0  0  0  0  0  0999 V2000
   20.0594  -20.8815   -5.1201 C   0  0  0  0  0  0  0  0  0  0  0  0
   21.1683  -20.4863   -6.0499 C   0  0  0  0  0  0  0  0  0  0  0  0
   22.2770  -20.0911   -6.9796 C   0  0  0  0  0  0  0  0  0  0  0  0
   23.3858  -19.6959   -7.9094 C   0  0  0  0  0  0  0  0  0  0  0  0
   24.7110  -19.1758   -8.3819 C   0  0  0  0  0  0  0  0  0  0  0  0
   25.0280  -19.1525   -9.8479 C   0  0  0  0  0  0  0  0  0  0  0  0
   26.2996  -18.5785   -9.2973 O   0  0  0  0  0  0  0  0  0  0  0  0
   24.0197  -19.6491  -10.8413 C   0  0  0  0  0  0  0  0  0  0  0  0
   22.6944  -20.1692  -10.3686 C   0  0  0  0  0  0  0  0  0  0  0  0
   22.3775  -20.1925   -8.9026 C   0  0  0  0  0  0  0  0  0  0  0  0
   20.9992  -20.7568   -8.7243 O   0  0  0  0  0  0  0  0  0  0  0  0
   19.8627  -21.2941   -9.5428 C   0  0  0  0  0  0  0  0  0  0  0  0
   19.5000  -21.5530  -10.9749 C   0  0  0  0  0  0  0  0  0  0  0  0
   18.3244  -21.9840  -10.1488 C   0  0  0  0  0  0  0  0  0  0  0  0
   17.1490  -22.4148   -9.3226 O   0  0  0  0  0  0  0  0  0  0  0  0
   17.1940  -22.2845   -7.8289 C   0  0  0  0  0  0  0  0  0  0  0  0
   18.4145  -21.7231   -7.1615 C   0  0  0  0  0  0  0  0  0  0  0  0
   19.7977  -21.1503   -7.2531 N   0  0  0  0  0  0  0  0  0  0  0  0
   17.2390  -22.1541   -6.3353 C   0  0  0  0  0  0  0  0  0  0  0  0
   16.0636  -22.5851   -5.5091 N   0  0  0  0  0  0  0  0  0  0  0  0
   16.0186  -22.7154   -7.0027 C   0  0  0  0  0  0  0  0  0  0  0  0
   14.7981  -23.2768   -7.6701 C   0  0  0  0  0  0  0  0  0  0  0  0
   13.5777  -23.8381   -8.3376 C   0  0  0  0  0  0  0  0  0  0  0  0
   14.1486  -23.4576   -6.3303 C   0  0  0  0  0  0  0  0  0  0  0  0
   13.4990  -23.6386   -4.9904 C   0  0  0  0  0  0  0  0  0  0  0  0
   20.0805  -21.4125  -12.3509 C   0  0  0  0  0  0  0  0  0  0  0  0
   18.7105  -21.9992  -12.5200 C   0  0  0  0  0  0  0  0  0  0  0  0
   21.0627  -21.1310  -14.0933 C   0  0  0  0  0  0  0  0  0  0  0  0
   21.1570  -20.9803  -12.6039 C   0  0  0  0  0  0  0  0  0  0  0  0
   19.7898  -21.5674  -12.7941 O   0  0  0  0  0  0  0  0  0  0  0  0
   22.2953  -20.4424  -11.7885 C   0  0  0  0  0  0  0  0  0  0  0  0
   23.6205  -19.9224  -12.2611 C   0  0  0  0  0  0  0  0  0  0  0  0
   24.0552  -19.8494  -13.7228 C   0  0  0  0  0  0  0  0  0  0  0  0
   23.4629  -20.1971  -15.0564 C   0  0  0  0  0  0  0  0  0  0  0  0
   22.0835  -20.7810  -15.1352 C   0  0  0  0  0  0  0  0  0  0  0  0
   22.6757  -20.4333  -13.8016 C   0  0  0  0  0  0  0  0  0  0  0  0
   21.8885  -20.6695  -12.5469 C   0  0  0  0  0  0  0  0  0  0  0  0
   21.3126  -20.7137  -11.1625 C   0  0  0  0  0  0  0  0  0  0  0  0
   20.1102  -21.6101  -11.1891 C   0  0  0  0  0  0  0  0  0  0  0  0
   19.9429  -22.1199  -12.5898 C   0  0  0  0  0  0  0  0  0  0  0  0
   21.0419  -21.5386  -13.4290 C   0  0  0  0  0  0  0  0  0  0  0  0
   20.3970  -22.3203  -14.5349 C   0  0  0  0  0  0  0  0  0  0  0  0
   19.7521  -23.1020  -15.6407 C   0  0  0  0  0  0  0  0  0  0  0  0
   21.4357  -21.8197  -15.4944 C   0  0  0  0  0  0  0  0  0  0  0  0
   22.4743  -21.3192  -16.4539 C   0  0  0  0  0  0  0  0  0  0  0  0
   18.9507  -21.2768   -4.1904 H   0  0  0  0  0  0  0  0  0  0  0  0
   20.8918  -20.4567   -3.9468 H   0  0  0  0  0  0  0  0  0  0  0  0
   19.2271  -21.3064   -6.2934 H   0  0  0  0  0  0  0  0  0  0  0  0
   20.6336  -20.8143   -7.4125 H   0  0  0  0  0  0  0  0  0  0  0  0
   21.9957  -20.0497   -4.8774 H   0  0  0  0  0  0  0  0  0  0  0  0
   20.9611  -20.1310   -7.6984 H   0  0  0  0  0  0  0  0  0  0  0  0
   23.2609  -20.2001   -5.8526 H   0  0  0  0  0  0  0  0  0  0  0  0
   24.0090  -19.3365   -6.5931 H   0  0  0  0  0  0  0  0  0  0  0  0
   24.8740  -18.9971   -6.9016 H   0  0  0  0  0  0  0  0  0  0  0  0
   26.0928  -18.5937   -8.3405 H   0  0  0  0  0  0  0  0  0  0  0  0
   25.9220  -18.8652  -11.0176 H   0  0  0  0  0  0  0  0  0  0  0  0
   27.4084  -18.1833  -10.2270 H   0  0  0  0  0  0  0  0  0  0  0  0
   25.1964  -19.2176  -11.6653 H   0  0  0  0  0  0  0  0  0  0  0  0
   21.3625  -20.6939   -9.9207 H   0  0  0  0  0  0  0  0  0  0  0  0
   20.9972  -20.7760   -8.9704 H   0  0  0  0  0  0  0  0  0  0  0  0
   19.5954  -21.2959   -8.0667 H   0  0  0  0  0  0  0  0  0  0  0  0
   18.5584  -21.8003   -9.0020 H   0  0  0  0  0  0  0  0  0  0  0  0
   18.1539  -22.1400  -11.2814 H   0  0  0  0  0  0  0  0  0  0  0  0
   17.5950  -22.3861  -11.3963 H   0  0  0  0  0  0  0  0  0  0  0  0
   18.7478  -21.6980   -8.7384 H   0  0  0  0  0  0  0  0  0  0  0  0
   20.2221  -20.8671   -5.8426 H   0  0  0  0  0  0  0  0  0  0  0  0
   15.5646  -22.6889   -4.0983 H   0  0  0  0  0  0  0  0  0  0  0  0
   15.4477  -23.0959   -9.0101 H   0  0  0  0  0  0  0  0  0  0  0  0
   12.3574  -24.3993   -9.0052 H   0  0  0  0  0  0  0  0  0  0  0  0
   12.9341  -24.0331   -6.9969 H   0  0  0  0  0  0  0  0  0  0  0  0
   14.0679  -23.7129   -9.7498 H   0  0  0  0  0  0  0  0  0  0  0  0
   12.8548  -24.0290   -6.8299 H   0  0  0  0  0  0  0  0  0  0  0  0
   15.1787  -22.9645   -5.3579 H   0  0  0  0  0  0  0  0  0  0  0  0
   12.8494  -23.8195   -3.6504 H   0  0  0  0  0  0  0  0  0  0  0  0
   12.2756  -24.1927   -5.6582 H   0  0  0  0  0  0  0  0  0  0  0  0
   14.6341  -23.1106   -4.1640 H   0  0  0  0  0  0  0  0  0  0  0  0
   19.8753  -21.6084  -13.8238 H   0  0  0  0  0  0  0  0  0  0  0  0
   17.3404  -22.5860  -12.6891 H   0  0  0  0  0  0  0  0  0  0  0  0
   18.5690  -22.1691  -14.0036 H   0  0  0  0  0  0  0  0  0  0  0  0
   18.1889  -22.1132  -11.1182 H   0  0  0  0  0  0  0  0  0  0  0  0
   20.1696  -21.5884  -15.2083 H   0  0  0  0  0  0  0  0  0  0  0  0
   20.0996  -21.3489  -11.6058 H   0  0  0  0  0  0  0  0  0  0  0  0
   18.9950  -21.9900  -13.9939 H   0  0  0  0  0  0  0  0  0  0  0  0
   21.4066  -20.7272  -10.6141 H   0  0  0  0  0  0  0  0  0  0  0  0
   25.0032  -19.3413  -12.2383 H   0  0  0  0  0  0  0  0  0  0  0  0
   25.2809  -19.2867  -13.0664 H   0  0  0  0  0  0  0  0  0  0  0  0
   24.2501  -19.9609  -16.3112 H   0  0  0  0  0  0  0  0  0  0  0  0
   21.1695  -21.2457  -16.2300 H   0  0  0  0  0  0  0  0  0  0  0  0
   22.7037  -19.8125  -11.6244 H   0  0  0  0  0  0  0  0  0  0  0  0
   22.2991  -19.8008  -10.4967 H   0  0  0  0  0  0  0  0  0  0  0  0
   20.8328  -20.6769   -9.7418 H   0  0  0  0  0  0  0  0  0  0  0  0
   20.3197  -21.0734   -9.8041 H   0  0  0  0  0  0  0  0  0  0  0  0
   18.9034  -22.3779  -10.7374 H   0  0  0  0  0  0  0  0  0  0  0  0
   18.7310  -23.0022  -12.5398 H   0  0  0  0  0  0  0  0  0  0  0  0
   19.3859  -22.1480  -11.1974 H   0  0  0  0  0  0  0  0  0  0  0  0
   21.9076  -21.2250  -14.6132 H   0  0  0  0  0  0  0  0  0  0  0  0
   19.2332  -22.9951  -13.8715 H   0  0  0  0  0  0  0  0  0  0  0  0
   19.1072  -23.8837  -16.7467 H   0  0  0  0  0  0  0  0  0  0  0  0
   20.7041  -22.7001  -16.7281 H   0  0  0  0  0  0  0  0  0  0  0  0
   18.7137  -23.6029  -14.6812 H   0  0  0  0  0  0  0  0  0  0  0  0
   20.9213  -22.5335  -16.7093 H   0  0  0  0  0  0  0  0  0  0  0  0
   21.9500  -21.1060  -14.2795 H   0  0  0  0  0  0  0  0  0  0  0  0
   23.5129  -20.8187  -17.4135 H   0  0  0  0  0  0  0  0  0  0  0  0
   21.4948  -21.4500  -17.5824 H   0  0  0  0  0  0  0  0  0  0  0  0
   23.6760  -21.0712  -15.5911 H   0  0  0  0  0  0  0  0  0  0  0  0
  1  2  1  0
  2  3  1  0
  3  4  1  0
  4  5  1  0
  5  6  1  0
  6  7  1  0
  6  8  1  0
  8  9  1  0
  9 10  1  0
 10 11  1  0
 11 12  1  0
 12 13  1  0
 13 14  1  0
 14 15  1  0
 15 16  1  0
 16 17  1  0
 17 18  2  3
 17 19  1  0
 19 20  1  0
 20 21  1  0
 21 22  1  0
 22 23  1  0
 22 24  1  0
 24 25  1  0
 13 26  1  0
 26 27  1  0
 26 28  1  0
 28 29  1  0
 29 30  1  0
 29 31  1  0
 31 32  1  0
 32 33  1  0
 33 34  1  0
 34 35  1  0
 35 36  1  0
 36 37  1  0
 37 38  1  0
 38 39  1  0
 39 40  1  0
 40 41  1  0
 41 42  1  0
 42 43  1  0
 42 44  1  0
 44 45  1  0
 10  4  1  0
 19 16  1  0
 35 28  1  0
 41 37  1  0
 32  8  1  0
 36 33  1  0
 31  9  1  0
 36 34  1  0
 21 16  1  0
 21 19  1  0
  1 46  1  0
  1 47  1  0
  1 48  1  0
  2 49  1  0
  2 50  1  0
  3 51  1  0
  3 52  1  0
  4 53  1  0
  5 54  1  0
  5 55  1  0
  6 56  1  0
  7 57  1  0
  8 58  1  0
  9 59  1  0
 10 60  1  0
 12 61  1  0
 12 62  1  0
 13 63  1  0
 14 64  1  0
 14 65  1  0
 18 66  1  0
 20 67  1  0
 22 68  1  0
 23 69  1  0
 23 70  1  0
 23 71  1  0
 24 72  1  0
 24 73  1  0
 25 74  1  0
 25 75  1  0
 25 76  1  0
 26 77  1  0
 27 78  1  0
 27 79  1  0
 27 80  1  0
 28 81  1  0
 29 82  1  0
 30 83  1  0
 31 84  1  0
 32 85  1  0
 33 86  1  0
 34 87  1  0
 35 88  1  0
 37 89  1  0
 38 90  1  0
 38 91  1  0
 39 92  1  0
 39 93  1  0
 40 94  1  0
 40 95  1  0
 41 96  1  0
 42 97  1  0
 43 98  1  0
 43 99  1  0
 43100  1  0
 44101  1  0
 44102  1  0
 45103  1  0
 45104  1  0
 45105  1  0
M  END
