
     RDKit          2D

 49 53  0  0  0  0  0  0  0  0999 V2000
   -5.4427   24.3690    1.2802 C   0  0  0  0  0  0  0  0  0  0  0  0
   -4.0430   24.1428    1.7699 C   0  0  0  0  0  0  0  0  0  0  0  0
   -3.2443   25.2900    2.3142 O   0  0  0  0  0  0  0  0  0  0  0  0
   -3.4420   22.7696    1.7154 C   0  0  0  0  0  0  0  0  0  0  0  0
   -4.2407   21.6224    1.1711 P   0  0  0  0  0  0  0  0  0  0  0  0
   -2.0423   22.5435    2.2051 C   0  0  0  0  0  0  0  0  0  0  0  0
   -0.6427   22.3173    2.6948 C   0  0  0  0  0  0  0  0  0  0  0  0
   -0.7568   20.8621    2.3491 C   0  0  0  0  0  0  0  0  0  0  0  0
   -2.0260   20.3304    1.7521 C   0  0  0  0  0  0  0  0  0  0  0  0
   -3.1811   21.2538    1.5009 C   0  0  0  0  0  0  0  0  0  0  0  0
   -3.0670   22.7089    1.8466 C   0  0  0  0  0  0  0  0  0  0  0  0
   -1.7978   23.2407    2.4436 C   0  0  0  0  0  0  0  0  0  0  0  0
   -0.5286   23.7724    3.0406 C   0  0  0  0  0  0  0  0  0  0  0  0
    0.8696   23.8024    3.5829 C   0  0  0  0  0  0  0  0  0  0  0  0
    1.9507   22.7825    3.7858 C   0  0  0  0  0  0  0  0  0  0  0  0
    2.8470   23.8448    4.3498 C   0  0  0  0  0  0  0  0  0  0  0  0
    1.7659   24.8647    4.1470 O   0  0  0  0  0  0  0  0  0  0  0  0
    1.7659   24.8647    4.1470 C   0  0  0  0  0  0  0  0  0  0  0  0
    2.6623   25.9270    4.7111 F   0  0  0  0  0  0  0  0  0  0  0  0
    0.6849   25.8846    3.9441 C   0  0  0  0  0  0  0  0  0  0  0  0
   -0.3962   26.9044    3.7412 C   0  0  0  0  0  0  0  0  0  0  0  0
   -1.3042   26.1422    2.8223 O   0  0  0  0  0  0  0  0  0  0  0  0
   -2.5703   26.7744    2.3248 F   0  0  0  0  0  0  0  0  0  0  0  0
   -1.1619   28.1890    3.8574 C   0  0  0  0  0  0  0  0  0  0  0  0
    0.1365   28.0209    4.5897 N   0  0  0  0  0  0  0  0  0  0  0  0
   -6.8424   24.5951    0.7904 H   0  0  0  0  0  0  0  0  0  0  0  0
   -5.3257   25.8256    1.6185 H   0  0  0  0  0  0  0  0  0  0  0  0
   -5.5596   22.9123    0.9418 H   0  0  0  0  0  0  0  0  0  0  0  0
   -5.6404   21.8486    0.6814 H   0  0  0  0  0  0  0  0  0  0  0  0
   -2.4917   21.1862    1.7510 H   0  0  0  0  0  0  0  0  0  0  0  0
   -2.4375   23.9829    2.3524 H   0  0  0  0  0  0  0  0  0  0  0  0
   -0.3854   19.4174    2.1918 H   0  0  0  0  0  0  0  0  0  0  0  0
    0.6413   20.8921    2.8914 H   0  0  0  0  0  0  0  0  0  0  0  0
   -3.0131   19.3611    1.1725 H   0  0  0  0  0  0  0  0  0  0  0  0
   -1.2138   19.0703    1.8021 H   0  0  0  0  0  0  0  0  0  0  0  0
   -4.5853   21.3779    0.9882 H   0  0  0  0  0  0  0  0  0  0  0  0
   -3.7671   19.9638    1.0085 H   0  0  0  0  0  0  0  0  0  0  0  0
   -3.0997   24.1798    2.1393 H   0  0  0  0  0  0  0  0  0  0  0  0
   -4.4651   22.6789    1.3043 H   0  0  0  0  0  0  0  0  0  0  0  0
   -2.2396   24.6685    2.5704 H   0  0  0  0  0  0  0  0  0  0  0  0
   -1.0623   25.1717    3.1263 H   0  0  0  0  0  0  0  0  0  0  0  0
    3.0317   21.7627    3.9886 H   0  0  0  0  0  0  0  0  0  0  0  0
    1.0544   21.7203    3.2217 H   0  0  0  0  0  0  0  0  0  0  0  0
    4.2452   23.8748    4.8922 H   0  0  0  0  0  0  0  0  0  0  0  0
    1.4172   26.8391    4.8399 H   0  0  0  0  0  0  0  0  0  0  0  0
   -0.1738   25.0615    3.0303 H   0  0  0  0  0  0  0  0  0  0  0  0
   -2.3359   27.8730    2.9789 H   0  0  0  0  0  0  0  0  0  0  0  0
   -1.5199   29.5834    4.2788 H   0  0  0  0  0  0  0  0  0  0  0  0
    1.1936   28.5684    5.5022 H   0  0  0  0  0  0  0  0  0  0  0  0
  1  2  1  0
  2  3  2  0
  2  4  1  0
  4  5  2  3
  4  6  1  0
  6  7  1  0
  7  8  1  0
  8  9  1  0
  9 10  1  0
 10 11  1  0
 11 12  1  0
 12 13  1  0
 13 14  1  0
 14 15  1  0
 15 16  1  0
 16 17  1  0
 16 18  1  0
 18 19  1  0
 18 20  1  0
 20 21  1  0
 21 22  1  0
 22 23  1  0
 21 24  1  0
 24 25  1  0
 12  7  1  0
 17 14  1  0
 25 21  1  0
 13  7  1  0
 18 14  1  0
  1 26  1  0
  1 27  1  0
  1 28  1  0
  5 29  1  0
  6 30  1  0
  6 31  1  0
  8 32  1  0
  8 33  1  0
  9 34  1  0
  9 35  1  0
 10 36  1  0
 10 37  1  0
 11 38  1  0
 11 39  1  0
 12 40  1  0
 13 41  1  0
 15 42  1  0
 15 43  1  0
 16 44  1  0
 20 45  1  0
 20 46  1  0
 24 47  1  0
 24 48  1  0
 25 49  1  0
M  END
