
     RDKit          2D

 42 43  0  0  0  0  0  0  0  0999 V2000
   23.9522  -20.7129  -16.6490 C   0  0  0  0  0  0  0  0  0  0  0  0
   24.2735  -20.8408  -15.1894 N   0  0  0  0  0  0  0  0  0  0  0  0
   23.2653  -21.4306  -14.2483 C   0  0  0  0  0  0  0  0  0  0  0  0
   22.2572  -22.0205  -13.3073 C   0  0  0  0  0  0  0  0  0  0  0  0
   21.2491  -22.6105  -12.3662 C   0  0  0  0  0  0  0  0  0  0  0  0
   20.2410  -23.2004  -11.4251 C   0  0  0  0  0  0  0  0  0  0  0  0
   19.2329  -23.7903  -10.4840 C   0  0  0  0  0  0  0  0  0  0  0  0
   19.2226  -25.2679  -10.2258 N   0  0  0  0  0  0  0  0  0  0  0  0
   18.2350  -22.9027   -9.8011 C   0  0  0  0  0  0  0  0  0  0  0  0
   17.2371  -22.0150   -9.1182 C   0  0  0  0  0  0  0  0  0  0  0  0
   16.4848  -23.0363   -8.3177 C   0  0  0  0  0  0  0  0  0  0  0  0
   15.3930  -23.3802   -7.3483 C   0  0  0  0  0  0  0  0  0  0  0  0
   15.0065  -21.9329   -7.2703 C   0  0  0  0  0  0  0  0  0  0  0  0
   14.6201  -20.4856   -7.1923 O   0  0  0  0  0  0  0  0  0  0  0  0
   13.9147  -22.2767   -6.3009 O   0  0  0  0  0  0  0  0  0  0  0  0
   16.0984  -21.5891   -8.2397 C   0  0  0  0  0  0  0  0  0  0  0  0
   21.3434  -20.8576  -13.5573 S   0  0  0  0  0  0  0  0  0  0  0  0
   21.7598  -19.7650  -14.4968 C   0  0  0  0  0  0  0  0  0  0  0  0
   23.6309  -20.5851  -18.1086 H   0  0  0  0  0  0  0  0  0  0  0  0
   25.3024  -20.1069  -16.8933 H   0  0  0  0  0  0  0  0  0  0  0  0
   22.6020  -21.3189  -16.4049 H   0  0  0  0  0  0  0  0  0  0  0  0
   25.6031  -20.3787  -14.6709 H   0  0  0  0  0  0  0  0  0  0  0  0
   23.1758  -20.6405  -14.3044 H   0  0  0  0  0  0  0  0  0  0  0  0
   23.8329  -22.7968  -14.4967 H   0  0  0  0  0  0  0  0  0  0  0  0
   23.1711  -23.1835  -13.0573 H   0  0  0  0  0  0  0  0  0  0  0  0
   21.9286  -23.9434  -12.4738 H   0  0  0  0  0  0  0  0  0  0  0  0
   20.5696  -21.2776  -12.2585 H   0  0  0  0  0  0  0  0  0  0  0  0
   20.8112  -24.5660  -11.6703 H   0  0  0  0  0  0  0  0  0  0  0  0
   19.6708  -21.8348  -11.1798 H   0  0  0  0  0  0  0  0  0  0  0  0
   20.2204  -26.1555  -10.9086 H   0  0  0  0  0  0  0  0  0  0  0  0
   17.7731  -24.1955   -9.1969 H   0  0  0  0  0  0  0  0  0  0  0  0
   18.8229  -21.7090  -10.4937 H   0  0  0  0  0  0  0  0  0  0  0  0
   17.6429  -20.6853   -9.6815 H   0  0  0  0  0  0  0  0  0  0  0  0
   17.0195  -24.4217   -8.5298 H   0  0  0  0  0  0  0  0  0  0  0  0
   14.3012  -23.7240   -6.3789 H   0  0  0  0  0  0  0  0  0  0  0  0
   15.7795  -24.8274   -7.4263 H   0  0  0  0  0  0  0  0  0  0  0  0
   13.2222  -20.1024   -6.8060 H   0  0  0  0  0  0  0  0  0  0  0  0
   12.7449  -21.3535   -6.1304 H   0  0  0  0  0  0  0  0  0  0  0  0
   16.0076  -20.1022   -8.4152 H   0  0  0  0  0  0  0  0  0  0  0  0
   22.1761  -18.6723  -15.4364 H   0  0  0  0  0  0  0  0  0  0  0  0
   23.0581  -20.4737  -14.7456 H   0  0  0  0  0  0  0  0  0  0  0  0
   21.1018  -19.3204  -14.4264 H   0  0  0  0  0  0  0  0  0  0  0  0
  1  2  1  0
  2  3  1  0
  3  4  1  0
  4  5  1  0
  5  6  1  0
  6  7  1  0
  7  8  2  3
  7  9  1  0
  9 10  1  0
 10 11  1  0
 11 12  1  0
 12 13  1  0
 13 14  1  0
 13 15  1  0
 13 16  1  0
  4 17  1  0
 17 18  1  0
 16 10  1  0
 16 11  1  0
  1 19  1  0
  1 20  1  0
  1 21  1  0
  2 22  1  0
  3 23  1  0
  3 24  1  0
  4 25  1  0
  5 26  1  0
  5 27  1  0
  6 28  1  0
  6 29  1  0
  8 30  1  0
  9 31  1  0
  9 32  1  0
 10 33  1  0
 11 34  1  0
 12 35  1  0
 12 36  1  0
 14 37  1  0
 15 38  1  0
 16 39  1  0
 18 40  1  0
 18 41  1  0
 18 42  1  0
M  END
