
     RDKit          2D

 16 16  0  0  0  0  0  0  0  0999 V2000
   -7.0090   29.4692    9.6823 C   0  0  0  0  0  0  0  0  0  0  0  0
   -7.2186   28.8063    8.3532 P   0  0  0  0  0  0  0  0  0  0  0  0
   -7.0645   27.3199    8.2238 C   0  0  0  0  0  0  0  0  0  0  0  0
   -7.4099   27.5674    6.7853 C   0  0  0  0  0  0  0  0  0  0  0  0
   -7.7089   28.9011    6.1673 C   0  0  0  0  0  0  0  0  0  0  0  0
   -7.4037   26.2472    6.0732 C   0  0  0  0  0  0  0  0  0  0  0  0
   -7.6955   26.0290    4.6181 O   0  0  0  0  0  0  0  0  0  0  0  0
   -7.0546   25.1837    7.0717 N   0  0  0  0  0  0  0  0  0  0  0  0
   -6.8450   25.8466    8.4008 C   0  0  0  0  0  0  0  0  0  0  0  0
   -6.4799   25.1573    9.6820 O   0  0  0  0  0  0  0  0  0  0  0  0
   -7.1631   30.9557    9.8117 H   0  0  0  0  0  0  0  0  0  0  0  0
   -6.6452   28.6456   10.8821 H   0  0  0  0  0  0  0  0  0  0  0  0
   -6.7514   27.3830    9.6894 H   0  0  0  0  0  0  0  0  0  0  0  0
   -7.6768   30.1420    7.0093 H   0  0  0  0  0  0  0  0  0  0  0  0
   -8.0399   28.9938    4.7072 H   0  0  0  0  0  0  0  0  0  0  0  0
   -6.9359   23.7151    6.7904 H   0  0  0  0  0  0  0  0  0  0  0  0
  1  2  2  3
  2  3  1  0
  3  4  1  0
  4  5  2  3
  4  6  1  0
  6  7  2  0
  6  8  1  0
  8  9  1  0
  9 10  2  0
  9  3  1  0
  1 11  1  0
  1 12  1  0
  3 13  1  0
  5 14  1  0
  5 15  1  0
  8 16  1  0
M  END
