
     RDKit          2D

 22 26  0  0  0  0  0  0  0  0999 V2000
   16.9853  -24.1764   -5.8617 O   0  0  0  0  0  0  0  0  0  0  0  0
   17.3270  -23.3007   -7.0307 C   0  0  0  0  0  0  0  0  0  0  0  0
   16.9381  -21.9624   -6.4760 O   0  0  0  0  0  0  0  0  0  0  0  0
   17.4923  -22.0659   -7.8660 C   0  0  0  0  0  0  0  0  0  0  0  0
   17.6577  -20.8310   -8.7014 C   0  0  0  0  0  0  0  0  0  0  0  0
   18.2119  -20.9345  -10.0914 C   0  0  0  0  0  0  0  0  0  0  0  0
   18.3773  -19.6996  -10.9267 C   0  0  0  0  0  0  0  0  0  0  0  0
   18.9315  -19.8031  -12.3167 C   0  0  0  0  0  0  0  0  0  0  0  0
   19.3203  -21.1414  -12.8714 C   0  0  0  0  0  0  0  0  0  0  0  0
   19.1550  -22.3763  -12.0361 C   0  0  0  0  0  0  0  0  0  0  0  0
   18.6008  -22.2728  -10.6461 C   0  0  0  0  0  0  0  0  0  0  0  0
   18.0465  -22.1694   -9.2560 C   0  0  0  0  0  0  0  0  0  0  0  0
   17.2086  -25.6574   -5.9435 H   0  0  0  0  0  0  0  0  0  0  0  0
   17.8345  -24.3349   -7.9914 H   0  0  0  0  0  0  0  0  0  0  0  0
   17.2688  -19.4927   -8.1467 H   0  0  0  0  0  0  0  0  0  0  0  0
   18.3464  -18.2546  -11.3277 H   0  0  0  0  0  0  0  0  0  0  0  0
   17.8124  -19.0943   -9.6760 H   0  0  0  0  0  0  0  0  0  0  0  0
   19.0969  -18.5683  -13.1521 H   0  0  0  0  0  0  0  0  0  0  0  0
   19.8746  -21.2449  -14.2614 H   0  0  0  0  0  0  0  0  0  0  0  0
   19.1858  -23.8214  -11.6351 H   0  0  0  0  0  0  0  0  0  0  0  0
   19.7199  -22.9816  -13.2868 H   0  0  0  0  0  0  0  0  0  0  0  0
   18.7298  -23.7585  -10.4840 H   0  0  0  0  0  0  0  0  0  0  0  0
  1  2  1  0
  2  3  1  0
  3  4  1  0
  4  5  1  0
  5  6  1  0
  6  7  1  0
  7  8  1  0
  8  9  2  0
  9 10  1  0
 10 11  1  0
 11 12  1  0
  4  2  1  0
 12  5  1  0
 12  4  1  0
 11  6  1  0
 12  6  1  0
  1 13  1  0
  2 14  1  0
  5 15  1  0
  7 16  1  0
  7 17  1  0
  8 18  1  0
  9 19  1  0
 10 20  1  0
 10 21  1  0
 11 22  1  0
M  END
