
     RDKit          2D

 79 81  0  0  0  0  0  0  0  0999 V2000
    0.9894   25.3607    9.7352 C   0  0  0  0  0  0  0  0  0  0  0  0
    1.7379   25.3343    8.4356 C   0  0  0  0  0  0  0  0  0  0  0  0
    1.2095   26.0866    7.2504 C   0  0  0  0  0  0  0  0  0  0  0  0
    0.6810   26.8389    6.0651 C   0  0  0  0  0  0  0  0  0  0  0  0
    0.1526   27.5911    4.8799 C   0  0  0  0  0  0  0  0  0  0  0  0
   -0.4881   27.3040    6.8817 C   0  0  0  0  0  0  0  0  0  0  0  0
   -1.6572   27.7692    7.6982 C   0  0  0  0  0  0  0  0  0  0  0  0
   -2.9366   28.4637    8.0601 O   0  0  0  0  0  0  0  0  0  0  0  0
   -2.3807   28.5909    6.6728 C   0  0  0  0  0  0  0  0  0  0  0  0
   -3.4229   29.4750    6.0546 O   0  0  0  0  0  0  0  0  0  0  0  0
   -1.4628   28.4111    5.5001 P   0  0  0  0  0  0  0  0  0  0  0  0
   -1.7803   29.0711    4.1911 C   0  0  0  0  0  0  0  0  0  0  0  0
   -2.0976   29.7312    2.8820 C   0  0  0  0  0  0  0  0  0  0  0  0
   -2.4151   30.3913    1.5730 C   0  0  0  0  0  0  0  0  0  0  0  0
   -2.7325   31.0514    0.2640 C   0  0  0  0  0  0  0  0  0  0  0  0
   -3.0499   31.7114   -1.0450 C   0  0  0  0  0  0  0  0  0  0  0  0
   -3.6566   30.9825    2.1722 C   0  0  0  0  0  0  0  0  0  0  0  0
   -4.8981   31.5736    2.7716 O   0  0  0  0  0  0  0  0  0  0  0  0
    2.3391   25.5626    6.4141 C   0  0  0  0  0  0  0  0  0  0  0  0
    1.8110   26.3153    5.2290 O   0  0  0  0  0  0  0  0  0  0  0  0
    2.9406   25.7914    4.3928 C   0  0  0  0  0  0  0  0  0  0  0  0
    4.0703   25.2674    3.5565 N   0  0  0  0  0  0  0  0  0  0  0  0
    4.1536   25.6221    2.1014 C   0  0  0  0  0  0  0  0  0  0  0  0
    3.4688   25.0386    5.5778 C   0  0  0  0  0  0  0  0  0  0  0  0
    3.9969   24.2858    6.7630 C   0  0  0  0  0  0  0  0  0  0  0  0
    4.5250   23.5331    7.9481 C   0  0  0  0  0  0  0  0  0  0  0  0
    5.0532   22.7804    9.1331 C   0  0  0  0  0  0  0  0  0  0  0  0
    6.1825   22.2560    8.2968 C   0  0  0  0  0  0  0  0  0  0  0  0
    6.7107   21.5032    9.4818 C   0  0  0  0  0  0  0  0  0  0  0  0
    5.5813   22.0277   10.3183 C   0  0  0  0  0  0  0  0  0  0  0  0
    4.4520   22.5521   11.1546 C   0  0  0  0  0  0  0  0  0  0  0  0
    3.3226   23.0765   11.9910 O   0  0  0  0  0  0  0  0  0  0  0  0
    3.5144   23.2857   13.4639 C   0  0  0  0  0  0  0  0  0  0  0  0
    1.5179   24.6083   10.9205 H   0  0  0  0  0  0  0  0  0  0  0  0
   -0.2875   26.1393    9.8496 H   0  0  0  0  0  0  0  0  0  0  0  0
    2.8845   24.4571    8.8430 H   0  0  0  0  0  0  0  0  0  0  0  0
    0.1526   26.5150    8.2249 H   0  0  0  0  0  0  0  0  0  0  0  0
    0.1461   26.9820    6.6386 H   0  0  0  0  0  0  0  0  0  0  0  0
   -0.2294   28.2812    3.6040 H   0  0  0  0  0  0  0  0  0  0  0  0
   -1.1285   28.2947    5.2172 H   0  0  0  0  0  0  0  0  0  0  0  0
    1.3219   27.1264    4.0635 H   0  0  0  0  0  0  0  0  0  0  0  0
   -0.8688   27.9961    5.6065 H   0  0  0  0  0  0  0  0  0  0  0  0
   -0.1075   26.6120    8.1569 H   0  0  0  0  0  0  0  0  0  0  0  0
   -1.3398   27.1091    9.0072 H   0  0  0  0  0  0  0  0  0  0  0  0
   -3.2959   29.8938    4.6198 H   0  0  0  0  0  0  0  0  0  0  0  0
   -0.2275   27.5711    5.6365 H   0  0  0  0  0  0  0  0  0  0  0  0
   -3.0241   29.6588    4.7890 H   0  0  0  0  0  0  0  0  0  0  0  0
   -0.5844   28.5683    3.4380 H   0  0  0  0  0  0  0  0  0  0  0  0
   -3.2926   30.2354    3.6356 H   0  0  0  0  0  0  0  0  0  0  0  0
   -0.8547   29.1422    2.2837 H   0  0  0  0  0  0  0  0  0  0  0  0
   -1.1735   29.8001    0.9738 H   0  0  0  0  0  0  0  0  0  0  0  0
   -4.0060   31.7146    0.6978 H   0  0  0  0  0  0  0  0  0  0  0  0
   -1.4883   30.4642   -0.3338 H   0  0  0  0  0  0  0  0  0  0  0  0
   -3.3673   32.3715   -2.3541 H   0  0  0  0  0  0  0  0  0  0  0  0
   -1.7907   31.1483   -1.6343 H   0  0  0  0  0  0  0  0  0  0  0  0
   -4.3091   32.2746   -0.4557 H   0  0  0  0  0  0  0  0  0  0  0  0
   -3.5650   30.2921    3.5008 H   0  0  0  0  0  0  0  0  0  0  0  0
   -4.0509   31.8170    0.9899 H   0  0  0  0  0  0  0  0  0  0  0  0
   -5.3071   31.2037    4.1665 H   0  0  0  0  0  0  0  0  0  0  0  0
    2.8673   24.8098    7.5993 H   0  0  0  0  0  0  0  0  0  0  0  0
    2.4125   26.5441    3.2077 H   0  0  0  0  0  0  0  0  0  0  0  0
    5.2832   25.0981    1.2652 H   0  0  0  0  0  0  0  0  0  0  0  0
    3.1072   26.5008    1.4826 H   0  0  0  0  0  0  0  0  0  0  0  0
    4.5985   24.5146    4.7416 H   0  0  0  0  0  0  0  0  0  0  0  0
    5.1253   23.7601    5.9261 H   0  0  0  0  0  0  0  0  0  0  0  0
    3.0299   24.6139    7.8617 H   0  0  0  0  0  0  0  0  0  0  0  0
    5.5824   23.1054    6.9738 H   0  0  0  0  0  0  0  0  0  0  0  0
    3.4678   23.9608    8.9223 H   0  0  0  0  0  0  0  0  0  0  0  0
    3.8679   23.3927    9.8189 H   0  0  0  0  0  0  0  0  0  0  0  0
    7.3119   21.7315    7.4604 H   0  0  0  0  0  0  0  0  0  0  0  0
    5.7960   22.9392    7.0185 H   0  0  0  0  0  0  0  0  0  0  0  0
    7.2389   20.7505   10.6670 H   0  0  0  0  0  0  0  0  0  0  0  0
    7.8401   20.9788    8.6455 H   0  0  0  0  0  0  0  0  0  0  0  0
    6.1095   21.2749   11.5033 H   0  0  0  0  0  0  0  0  0  0  0  0
    5.2088   22.1959   12.3998 H   0  0  0  0  0  0  0  0  0  0  0  0
    3.5631   22.9695   10.0207 H   0  0  0  0  0  0  0  0  0  0  0  0
    3.7063   23.4948   14.9369 H   0  0  0  0  0  0  0  0  0  0  0  0
    2.0997   23.7705   13.5793 H   0  0  0  0  0  0  0  0  0  0  0  0
    4.9292   22.8008   13.3486 H   0  0  0  0  0  0  0  0  0  0  0  0
  1  2  2  3
  2  3  1  0
  3  4  1  0
  4  5  1  0
  4  6  1  0
  6  7  1  0
  7  8  1  0
  8  9  1  0
  9 10  1  0
  9 11  1  0
 11 12  1  0
 12 13  1  0
 13 14  1  0
 14 15  1  0
 15 16  1  0
 14 17  1  0
 17 18  1  0
  3 19  1  0
 19 20  1  0
 20 21  1  0
 21 22  1  0
 22 23  2  3
 21 24  1  0
 24 25  1  0
 25 26  1  0
 26 27  1  0
 27 28  1  0
 28 29  1  0
 29 30  1  0
 30 31  1  0
 31 32  1  0
 32 33  1  0
  9  7  1  0
 24 19  1  0
 30 27  1  0
  1 34  1  0
  1 35  1  0
  2 36  1  0
  3 37  1  0
  4 38  1  0
  5 39  1  0
  5 40  1  0
  5 41  1  0
  6 42  1  0
  6 43  1  0
  7 44  1  0
 10 45  1  0
 11 46  1  0
 12 47  1  0
 12 48  1  0
 13 49  1  0
 13 50  1  0
 14 51  1  0
 15 52  1  0
 15 53  1  0
 16 54  1  0
 16 55  1  0
 16 56  1  0
 17 57  1  0
 17 58  1  0
 18 59  1  0
 19 60  1  0
 21 61  1  0
 23 62  1  0
 23 63  1  0
 24 64  1  0
 25 65  1  0
 25 66  1  0
 26 67  1  0
 26 68  1  0
 27 69  1  0
 28 70  1  0
 28 71  1  0
 29 72  1  0
 29 73  1  0
 30 74  1  0
 31 75  1  0
 31 76  1  0
 33 77  1  0
 33 78  1  0
 33 79  1  0
M  END
