
     RDKit          2D

 66 69  0  0  0  0  0  0  0  0999 V2000
   16.0044  -20.5356  -10.7819 C   0  0  0  0  0  0  0  0  0  0  0  0
   16.4138  -20.9541  -12.1630 C   0  0  0  0  0  0  0  0  0  0  0  0
   16.8232  -21.3725  -13.5441 C   0  0  0  0  0  0  0  0  0  0  0  0
   16.3618  -22.5515  -12.7397 F   0  0  0  0  0  0  0  0  0  0  0  0
   17.2326  -21.7909  -14.9251 C   0  0  0  0  0  0  0  0  0  0  0  0
   17.6421  -22.2093  -16.3062 C   0  0  0  0  0  0  0  0  0  0  0  0
   18.0515  -22.6276  -17.6872 C   0  0  0  0  0  0  0  0  0  0  0  0
   18.4609  -23.0460  -19.0683 C   0  0  0  0  0  0  0  0  0  0  0  0
   18.8703  -23.4644  -20.4494 C   0  0  0  0  0  0  0  0  0  0  0  0
   19.2797  -23.8828  -21.8304 N   0  0  0  0  0  0  0  0  0  0  0  0
   16.9840  -23.2254  -14.5642 N   0  0  0  0  0  0  0  0  0  0  0  0
   17.2115  -24.3048  -15.5807 C   0  0  0  0  0  0  0  0  0  0  0  0
   16.5079  -23.5806  -13.1869 C   0  0  0  0  0  0  0  0  0  0  0  0
   16.0317  -23.9358  -11.8094 C   0  0  0  0  0  0  0  0  0  0  0  0
   15.5556  -24.2910  -10.4321 C   0  0  0  0  0  0  0  0  0  0  0  0
   15.7039  -22.7987  -10.4646 C   0  0  0  0  0  0  0  0  0  0  0  0
   15.5265  -21.6067   -9.5715 C   0  0  0  0  0  0  0  0  0  0  0  0
   15.7511  -20.1502   -9.8514 C   0  0  0  0  0  0  0  0  0  0  0  0
   15.3310  -19.8162   -8.4506 C   0  0  0  0  0  0  0  0  0  0  0  0
   15.1065  -21.2727   -8.1707 N   0  0  0  0  0  0  0  0  0  0  0  0
   14.6403  -21.9531   -6.9178 C   0  0  0  0  0  0  0  0  0  0  0  0
   14.3463  -23.3294   -6.3989 C   0  0  0  0  0  0  0  0  0  0  0  0
   14.3618  -24.7577   -6.8568 C   0  0  0  0  0  0  0  0  0  0  0  0
   14.2135  -26.2499   -6.8244 C   0  0  0  0  0  0  0  0  0  0  0  0
   14.0260  -24.1257   -5.6324 C   0  0  0  0  0  0  0  0  0  0  0  0
   14.1742  -22.6334   -5.6648 C   0  0  0  0  0  0  0  0  0  0  0  0
   13.8564  -21.8214   -4.4443 O   0  0  0  0  0  0  0  0  0  0  0  0
   14.6796  -25.5696   -8.0773 N   0  0  0  0  0  0  0  0  0  0  0  0
   15.1511  -25.3853   -9.4893 C   0  0  0  0  0  0  0  0  0  0  0  0
   15.8335  -20.1364  -10.1134 H   0  0  0  0  0  0  0  0  0  0  0  0
   16.3174  -19.1086  -11.1215 H   0  0  0  0  0  0  0  0  0  0  0  0
   15.6914  -21.9628  -10.4424 H   0  0  0  0  0  0  0  0  0  0  0  0
   16.0467  -22.3186  -11.6598 H   0  0  0  0  0  0  0  0  0  0  0  0
   16.7335  -19.5278  -12.5003 H   0  0  0  0  0  0  0  0  0  0  0  0
   17.1603  -19.9489  -13.8754 H   0  0  0  0  0  0  0  0  0  0  0  0
   17.4813  -20.3563  -15.2860 H   0  0  0  0  0  0  0  0  0  0  0  0
   17.4960  -23.6914  -16.4844 H   0  0  0  0  0  0  0  0  0  0  0  0
   17.9558  -20.7822  -16.6455 H   0  0  0  0  0  0  0  0  0  0  0  0
   19.1840  -22.0374  -20.7886 H   0  0  0  0  0  0  0  0  0  0  0  0
   18.5566  -24.8914  -20.1100 H   0  0  0  0  0  0  0  0  0  0  0  0
   19.5917  -22.8445  -22.8671 H   0  0  0  0  0  0  0  0  0  0  0  0
   19.3772  -25.3395  -22.1748 H   0  0  0  0  0  0  0  0  0  0  0  0
   17.4390  -25.3842  -16.5972 H   0  0  0  0  0  0  0  0  0  0  0  0
   17.8075  -23.4313  -16.6446 H   0  0  0  0  0  0  0  0  0  0  0  0
   16.6391  -25.3174  -14.6336 H   0  0  0  0  0  0  0  0  0  0  0  0
   16.4965  -25.0321  -13.5651 H   0  0  0  0  0  0  0  0  0  0  0  0
   16.4611  -22.1833  -12.6435 H   0  0  0  0  0  0  0  0  0  0  0  0
   16.1021  -22.4519  -11.6016 H   0  0  0  0  0  0  0  0  0  0  0  0
   16.0194  -25.3872  -12.1880 H   0  0  0  0  0  0  0  0  0  0  0  0
   15.7356  -25.4777  -11.3317 H   0  0  0  0  0  0  0  0  0  0  0  0
   16.0375  -21.4949  -11.1271 H   0  0  0  0  0  0  0  0  0  0  0  0
   16.1664  -22.7616  -11.8910 H   0  0  0  0  0  0  0  0  0  0  0  0
   15.1570  -21.0010   -8.2499 H   0  0  0  0  0  0  0  0  0  0  0  0
   15.9757  -18.6938  -10.1313 H   0  0  0  0  0  0  0  0  0  0  0  0
   16.2129  -20.1219  -11.2782 H   0  0  0  0  0  0  0  0  0  0  0  0
   14.9111  -19.4822   -7.0499 H   0  0  0  0  0  0  0  0  0  0  0  0
   15.5556  -18.3598   -8.7305 H   0  0  0  0  0  0  0  0  0  0  0  0
   14.3889  -20.9355   -5.8446 H   0  0  0  0  0  0  0  0  0  0  0  0
   13.8704  -23.6590   -5.0151 H   0  0  0  0  0  0  0  0  0  0  0  0
   13.9857  -22.6842   -5.0935 H   0  0  0  0  0  0  0  0  0  0  0  0
   13.8880  -25.2953   -5.5391 H   0  0  0  0  0  0  0  0  0  0  0  0
   13.8588  -27.5043   -6.0823 H   0  0  0  0  0  0  0  0  0  0  0  0
   13.6060  -23.7916   -4.2317 H   0  0  0  0  0  0  0  0  0  0  0  0
   13.6884  -25.4208   -4.9551 H   0  0  0  0  0  0  0  0  0  0  0  0
   15.4669  -26.2046  -10.7054 H   0  0  0  0  0  0  0  0  0  0  0  0
   14.9513  -26.8587   -9.2913 H   0  0  0  0  0  0  0  0  0  0  0  0
  1  2  1  0
  2  3  1  0
  3  4  1  0
  3  5  1  0
  5  6  1  0
  6  7  1  0
  7  8  3  0
  8  9  1  0
  9 10  1  0
  5 11  1  0
 11 12  1  0
 11 13  1  0
 13 14  1  0
 14 15  1  0
 15 16  1  0
 16 17  1  0
 17 18  1  0
 18 19  1  0
 19 20  1  0
 20 21  1  0
 21 22  1  0
 22 23  1  0
 23 24  1  0
 24 25  1  0
 25 26  1  0
 26 27  2  0
 24 28  1  0
 28 29  1  0
 29 15  1  0
 20 17  1  0
 26 21  1  0
 28 23  1  0
  1 30  1  0
  1 31  1  0
  1 32  1  0
  2 33  1  0
  2 34  1  0
  3 35  1  0
  5 36  1  0
  6 37  1  0
  6 38  1  0
  9 39  1  0
  9 40  1  0
 10 41  1  0
 10 42  1  0
 12 43  1  0
 12 44  1  0
 12 45  1  0
 13 46  1  0
 13 47  1  0
 14 48  1  0
 14 49  1  0
 15 50  1  0
 16 51  1  0
 16 52  1  0
 17 53  1  0
 18 54  1  0
 18 55  1  0
 19 56  1  0
 19 57  1  0
 21 58  1  0
 22 59  1  0
 22 60  1  0
 23 61  1  0
 24 62  1  0
 25 63  1  0
 25 64  1  0
 29 65  1  0
 29 66  1  0
M  END
