
     RDKit          2D

103111  0  0  0  0  0  0  0  0999 V2000
   24.5037  -30.6795   -9.4329 C   0  0  0  0  0  0  0  0  0  0  0  0
   23.9046  -29.5284  -10.1854 C   0  0  0  0  0  0  0  0  0  0  0  0
   22.4174  -29.3325  -10.1969 C   0  0  0  0  0  0  0  0  0  0  0  0
   22.3131  -30.1973  -11.4180 C   0  0  0  0  0  0  0  0  0  0  0  0
   20.9304  -29.1366  -10.2084 C   0  0  0  0  0  0  0  0  0  0  0  0
   20.0996  -29.7647  -11.2879 C   0  0  0  0  0  0  0  0  0  0  0  0
   20.2741  -28.3128   -9.1404 C   0  0  0  0  0  0  0  0  0  0  0  0
   19.5998  -27.9589   -7.8481 C   0  0  0  0  0  0  0  0  0  0  0  0
   19.7475  -29.1542   -7.6885 F   0  0  0  0  0  0  0  0  0  0  0  0
   18.8825  -26.7792   -6.7917 C   0  0  0  0  0  0  0  0  0  0  0  0
   18.8327  -25.3523   -7.2513 C   0  0  0  0  0  0  0  0  0  0  0  0
   18.5766  -23.8749   -7.2925 C   0  0  0  0  0  0  0  0  0  0  0  0
   19.0940  -23.3509   -8.5993 C   0  0  0  0  0  0  0  0  0  0  0  0
   19.5092  -22.5509   -9.7984 C   0  0  0  0  0  0  0  0  0  0  0  0
   18.6049  -22.0301   -8.0835 C   0  0  0  0  0  0  0  0  0  0  0  0
   18.3056  -20.5613   -8.0297 C   0  0  0  0  0  0  0  0  0  0  0  0
   17.8592  -19.1874   -7.6256 C   0  0  0  0  0  0  0  0  0  0  0  0
   17.9040  -17.8285   -8.2591 C   0  0  0  0  0  0  0  0  0  0  0  0
   17.6047  -16.3595   -8.2052 C   0  0  0  0  0  0  0  0  0  0  0  0
   17.3055  -14.8907   -8.1514 C   0  0  0  0  0  0  0  0  0  0  0  0
   17.0062  -13.4219   -8.0975 C   0  0  0  0  0  0  0  0  0  0  0  0
   16.7069  -11.9530   -8.0436 C   0  0  0  0  0  0  0  0  0  0  0  0
   16.4077  -10.4842   -7.9898 C   0  0  0  0  0  0  0  0  0  0  0  0
   16.1084   -9.0153   -7.9360 Cl  0  0  0  0  0  0  0  0  0  0  0  0
   16.9908  -16.5344   -6.8477 C   0  0  0  0  0  0  0  0  0  0  0  0
   16.3770  -16.7092   -5.4903 C   0  0  0  0  0  0  0  0  0  0  0  0
   16.6347  -15.2630   -5.1875 C   0  0  0  0  0  0  0  0  0  0  0  0
   16.0209  -15.4378   -3.8301 C   0  0  0  0  0  0  0  0  0  0  0  0
   15.7631  -16.8841   -4.1329 S   0  0  0  0  0  0  0  0  0  0  0  0
   18.4137  -17.2804   -9.5590 N   0  0  0  0  0  0  0  0  0  0  0  0
   19.0899  -17.8645  -10.7640 C   0  0  0  0  0  0  0  0  0  0  0  0
   19.5362  -19.2383  -11.1680 C   0  0  0  0  0  0  0  0  0  0  0  0
   20.1442  -19.0645  -12.5283 N   0  0  0  0  0  0  0  0  0  0  0  0
   20.7073  -20.2497  -13.2550 C   0  0  0  0  0  0  0  0  0  0  0  0
   20.6625  -21.6087  -12.6215 N   0  0  0  0  0  0  0  0  0  0  0  0
   20.0546  -21.7824  -11.2613 C   0  0  0  0  0  0  0  0  0  0  0  0
   19.4915  -20.5972  -10.5345 N   0  0  0  0  0  0  0  0  0  0  0  0
   18.9817  -21.1452   -9.2346 C   0  0  0  0  0  0  0  0  0  0  0  0
   19.6700  -24.5045   -9.3659 C   0  0  0  0  0  0  0  0  0  0  0  0
   20.0851  -23.7045  -10.5648 C   0  0  0  0  0  0  0  0  0  0  0  0
   20.1591  -25.8254   -9.8817 C   0  0  0  0  0  0  0  0  0  0  0  0
   20.5538  -27.2461  -10.1572 C   0  0  0  0  0  0  0  0  0  0  0  0
   21.0276  -26.5941  -11.4222 C   0  0  0  0  0  0  0  0  0  0  0  0
   19.5582  -27.1684   -8.0731 C   0  0  0  0  0  0  0  0  0  0  0  0
   19.5085  -25.7414   -8.5327 C   0  0  0  0  0  0  0  0  0  0  0  0
   25.9908  -30.8753   -9.4215 H   0  0  0  0  0  0  0  0  0  0  0  0
   23.6156  -31.6346   -8.6921 H   0  0  0  0  0  0  0  0  0  0  0  0
   24.9329  -28.6750  -10.8670 H   0  0  0  0  0  0  0  0  0  0  0  0
   22.7025  -28.4979   -8.9835 H   0  0  0  0  0  0  0  0  0  0  0  0
   22.2086  -31.0622  -12.6391 H   0  0  0  0  0  0  0  0  0  0  0  0
   23.7746  -30.5097  -11.5464 H   0  0  0  0  0  0  0  0  0  0  0  0
   21.4471  -30.2015  -11.6043 H   0  0  0  0  0  0  0  0  0  0  0  0
   20.4871  -30.2511  -11.9185 H   0  0  0  0  0  0  0  0  0  0  0  0
   18.6322  -29.7774  -11.5991 H   0  0  0  0  0  0  0  0  0  0  0  0
   20.1658  -29.3414   -8.5028 H   0  0  0  0  0  0  0  0  0  0  0  0
   18.9888  -28.1174   -6.4873 H   0  0  0  0  0  0  0  0  0  0  0  0
   18.4399  -27.5131   -5.5606 H   0  0  0  0  0  0  0  0  0  0  0  0
   18.1731  -25.1911   -5.9138 H   0  0  0  0  0  0  0  0  0  0  0  0
   17.9795  -24.0998   -5.9350 H   0  0  0  0  0  0  0  0  0  0  0  0
   18.1302  -22.5011   -6.8884 H   0  0  0  0  0  0  0  0  0  0  0  0
   19.8236  -22.2703  -10.5774 H   0  0  0  0  0  0  0  0  0  0  0  0
   19.9612  -23.2897  -10.4658 H   0  0  0  0  0  0  0  0  0  0  0  0
   19.0901  -21.1502   -9.4629 H   0  0  0  0  0  0  0  0  0  0  0  0
   18.0135  -22.2804   -6.7280 H   0  0  0  0  0  0  0  0  0  0  0  0
   17.7419  -20.9252   -6.6881 H   0  0  0  0  0  0  0  0  0  0  0  0
   17.1959  -18.4200   -6.5205 H   0  0  0  0  0  0  0  0  0  0  0  0
   17.4824  -20.0723   -6.4745 H   0  0  0  0  0  0  0  0  0  0  0  0
   17.2282  -17.4392   -6.9777 H   0  0  0  0  0  0  0  0  0  0  0  0
   18.1775  -16.0070   -9.5459 H   0  0  0  0  0  0  0  0  0  0  0  0
   17.2456  -15.0350   -9.6432 H   0  0  0  0  0  0  0  0  0  0  0  0
   17.1727  -14.6769   -9.6301 H   0  0  0  0  0  0  0  0  0  0  0  0
   17.6128  -13.2484   -9.4584 H   0  0  0  0  0  0  0  0  0  0  0  0
   16.3996  -13.5954   -6.7366 H   0  0  0  0  0  0  0  0  0  0  0  0
   17.3128  -11.7797   -9.4048 H   0  0  0  0  0  0  0  0  0  0  0  0
   16.1010  -12.1264   -6.6824 H   0  0  0  0  0  0  0  0  0  0  0  0
   15.2125  -10.7594   -7.1261 H   0  0  0  0  0  0  0  0  0  0  0  0
   17.6027  -10.2090   -8.8535 H   0  0  0  0  0  0  0  0  0  0  0  0
   16.7652  -15.0559   -6.9614 H   0  0  0  0  0  0  0  0  0  0  0  0
   16.6156  -15.0985   -6.6305 H   0  0  0  0  0  0  0  0  0  0  0  0
   16.1192  -18.1556   -5.7932 H   0  0  0  0  0  0  0  0  0  0  0  0
   16.8925  -13.8167   -4.8847 H   0  0  0  0  0  0  0  0  0  0  0  0
   15.9767  -15.7825   -3.9437 H   0  0  0  0  0  0  0  0  0  0  0  0
   15.4070  -15.6126   -2.4727 H   0  0  0  0  0  0  0  0  0  0  0  0
   16.2786  -13.9915   -3.5273 H   0  0  0  0  0  0  0  0  0  0  0  0
   18.2762  -15.8150   -9.8475 H   0  0  0  0  0  0  0  0  0  0  0  0
   19.6978  -17.6908  -12.1242 H   0  0  0  0  0  0  0  0  0  0  0  0
   18.9581  -16.4007  -11.0640 H   0  0  0  0  0  0  0  0  0  0  0  0
   20.1438  -20.2979  -12.0388 H   0  0  0  0  0  0  0  0  0  0  0  0
   20.1890  -17.7056  -13.1617 H   0  0  0  0  0  0  0  0  0  0  0  0
   21.3654  -21.0608  -14.3316 H   0  0  0  0  0  0  0  0  0  0  0  0
   20.9807  -19.1725  -14.2624 H   0  0  0  0  0  0  0  0  0  0  0  0
   21.2257  -22.7939  -13.3483 H   0  0  0  0  0  0  0  0  0  0  0  0
   19.4813  -22.1087   -9.9141 H   0  0  0  0  0  0  0  0  0  0  0  0
   20.5186  -23.1363  -11.7105 H   0  0  0  0  0  0  0  0  0  0  0  0
   18.6057  -19.7116   -9.0036 H   0  0  0  0  0  0  0  0  0  0  0  0
   20.5625  -23.0620  -11.8335 H   0  0  0  0  0  0  0  0  0  0  0  0
   20.5660  -25.0368  -11.0586 H   0  0  0  0  0  0  0  0  0  0  0  0
   20.6673  -24.8417  -11.3509 H   0  0  0  0  0  0  0  0  0  0  0  0
   21.1889  -28.1937  -11.1311 H   0  0  0  0  0  0  0  0  0  0  0  0
   21.5016  -25.9421  -12.6873 H   0  0  0  0  0  0  0  0  0  0  0  0
   21.5724  -27.8311  -12.0725 H   0  0  0  0  0  0  0  0  0  0  0  0
   21.6556  -27.5987  -12.3423 H   0  0  0  0  0  0  0  0  0  0  0  0
   20.1631  -28.2368   -8.9348 H   0  0  0  0  0  0  0  0  0  0  0  0
  1  2  2  3
  2  3  1  0
  3  4  1  0
  3  5  1  0
  5  6  2  3
  5  7  1  0
  7  8  1  0
  8  9  1  0
  8 10  1  0
 10 11  1  0
 11 12  1  0
 12 13  1  0
 13 14  1  0
 13 15  1  0
 15 16  1  0
 16 17  1  0
 17 18  1  0
 18 19  1  0
 19 20  1  0
 20 21  1  0
 21 22  1  0
 22 23  1  0
 23 24  1  0
 19 25  1  0
 25 26  1  0
 26 27  1  0
 27 28  1  0
 28 29  1  0
 18 30  1  0
 30 31  1  0
 31 32  1  0
 32 33  1  0
 33 34  1  0
 34 35  1  0
 35 36  1  0
 36 37  1  0
 37 38  1  0
 13 39  1  0
 39 40  1  0
 39 41  1  0
 41 42  1  0
 42 43  1  0
 41 44  1  0
 44 45  1  0
 42  7  1  0
 44 10  1  0
 45 11  1  0
 38 15  1  0
 45 39  1  0
 38 16  1  0
 45 41  1  0
 29 26  1  0
 37 32  1  0
  1 46  1  0
  1 47  1  0
  2 48  1  0
  3 49  1  0
  4 50  1  0
  4 51  1  0
  4 52  1  0
  6 53  1  0
  6 54  1  0
  7 55  1  0
  8 56  1  0
 10 57  1  0
 11 58  1  0
 12 59  1  0
 12 60  1  0
 14 61  1  0
 14 62  1  0
 14 63  1  0
 15 64  1  0
 16 65  1  0
 17 66  1  0
 17 67  1  0
 18 68  1  0
 19 69  1  0
 20 70  1  0
 20 71  1  0
 21 72  1  0
 21 73  1  0
 22 74  1  0
 22 75  1  0
 23 76  1  0
 23 77  1  0
 25 78  1  0
 25 79  1  0
 26 80  1  0
 27 81  1  0
 27 82  1  0
 28 83  1  0
 28 84  1  0
 30 85  1  0
 31 86  1  0
 31 87  1  0
 32 88  1  0
 33 89  1  0
 34 90  1  0
 34 91  1  0
 35 92  1  0
 36 93  1  0
 36 94  1  0
 38 95  1  0
 40 96  1  0
 40 97  1  0
 40 98  1  0
 42 99  1  0
 43100  1  0
 43101  1  0
 43102  1  0
 44103  1  0
M  END
