
     RDKit          2D

 31 30  0  0  0  0  0  0  0  0999 V2000
   11.5411  -23.0974   -5.7627 C   0  0  0  0  0  0  0  0  0  0  0  0
   12.5704  -24.1089   -5.3534 O   0  0  0  0  0  0  0  0  0  0  0  0
   14.0071  -23.7019   -5.2120 C   0  0  0  0  0  0  0  0  0  0  0  0
   13.6483  -22.2992   -5.6040 N   0  0  0  0  0  2  0  0  0  0  0  0
   14.3659  -25.1045   -4.8200 C   0  0  0  0  0  0  0  0  0  0  0  0
   14.7248  -26.5073   -4.4279 C   0  0  0  0  0  0  0  0  0  0  0  0
   15.0836  -27.9100   -4.0359 N   0  0  0  0  0  0  0  0  0  0  0  0
   15.4439  -23.2948   -5.0706 N   0  0  0  0  0  2  0  0  0  0  0  0
   15.8514  -21.8763   -5.3384 C   0  0  0  0  0  0  0  0  0  0  0  0
   16.2589  -20.4577   -5.6063 C   0  0  0  0  0  0  0  0  0  0  0  0
   17.2751  -22.2252   -5.0205 O   0  0  0  0  0  0  0  0  0  0  0  0
   14.4276  -21.5273   -5.6563 N   0  0  0  0  0  0  0  0  0  0  0  0
   14.0670  -20.1221   -6.0378 C   0  0  0  0  0  0  0  0  0  0  0  0
   13.7065  -18.7170   -6.4192 Cl  0  0  0  0  0  0  0  0  0  0  0  0
   10.5118  -22.0860   -6.1721 H   0  0  0  0  0  0  0  0  0  0  0  0
   10.4974  -23.8459   -4.9878 H   0  0  0  0  0  0  0  0  0  0  0  0
   12.0787  -22.5860   -6.2464 H   0  0  0  0  0  0  0  0  0  0  0  0
   12.9158  -21.9916   -5.6686 H   0  0  0  0  0  0  0  0  0  0  0  0
   15.8217  -24.7719   -4.9622 H   0  0  0  0  0  0  0  0  0  0  0  0
   12.9102  -25.4372   -4.6778 H   0  0  0  0  0  0  0  0  0  0  0  0
   13.2691  -26.8398   -4.2854 H   0  0  0  0  0  0  0  0  0  0  0  0
   16.1805  -26.1747   -4.5705 H   0  0  0  0  0  0  0  0  0  0  0  0
   14.0023  -28.8991   -3.7158 H   0  0  0  0  0  0  0  0  0  0  0  0
   16.5236  -28.3236   -3.9640 H   0  0  0  0  0  0  0  0  0  0  0  0
   16.6664  -19.0392   -5.8742 H   0  0  0  0  0  0  0  0  0  0  0  0
   15.0759  -19.6237   -6.0000 H   0  0  0  0  0  0  0  0  0  0  0  0
   17.7215  -20.6310   -5.3224 H   0  0  0  0  0  0  0  0  0  0  0  0
   18.4560  -21.3004   -5.0343 H   0  0  0  0  0  0  0  0  0  0  0  0
   13.1467  -22.3070   -5.6924 H   0  0  0  0  0  0  0  0  0  0  0  0
   12.6315  -20.5308   -6.1864 H   0  0  0  0  0  0  0  0  0  0  0  0
   15.4480  -19.5452   -5.9367 H   0  0  0  0  0  0  0  0  0  0  0  0
  1  2  1  0
  2  3  1  0
  3  4  1  0
  3  5  1  0
  5  6  1  0
  6  7  1  0
  3  8  1  0
  8  9  1  0
  9 10  1  0
  9 11  1  0
  9 12  1  0
 12 13  1  0
 13 14  1  0
  1 15  1  0
  1 16  1  0
  1 17  1  0
  4 18  1  0
  5 19  1  0
  5 20  1  0
  6 21  1  0
  6 22  1  0
  7 23  1  0
  7 24  1  0
 10 25  1  0
 10 26  1  0
 10 27  1  0
 11 28  1  0
 12 29  1  0
 13 30  1  0
 13 31  1  0
M  RAD  2   4   2   8   2
M  END
