
     RDKit          2D

 96110  0  0  0  0  0  0  0  0999 V2000
   -0.5319   25.8542    6.5388 C   0  0  0  0  0  0  0  0  0  0  0  0
    0.0956   24.7042    5.8084 C   0  0  0  0  0  0  0  0  0  0  0  0
    0.7231   23.5542    5.0779 C   0  0  0  0  0  0  0  0  0  0  0  0
    0.7217   20.5344    3.7635 C   0  0  0  0  0  0  0  0  0  0  0  0
   -0.6764   20.5985    4.3032 C   0  0  0  0  0  0  0  0  0  0  0  0
   -0.4163   21.9854    4.8119 C   0  0  0  0  0  0  0  0  0  0  0  0
   -1.8218   21.5880    5.1534 C   0  0  0  0  0  0  0  0  0  0  0  0
   -3.2165   21.6694    5.6994 C   0  0  0  0  0  0  0  0  0  0  0  0
   -3.7319   20.3186    5.3000 O   0  0  0  0  0  0  0  0  0  0  0  0
   -2.2789   22.8290    5.8611 C   0  0  0  0  0  0  0  0  0  0  0  0
   -1.0320   23.6576    5.7654 O   0  0  0  0  0  0  0  0  0  0  0  0
   -3.1689   23.7823    6.6020 C   0  0  0  0  0  0  0  0  0  0  0  0
   -4.0589   24.7357    7.3430 C   0  0  0  0  0  0  0  0  0  0  0  0
    0.9818   21.9213    4.2722 C   0  0  0  0  0  0  0  0  0  0  0  0
    2.0568   22.9656    4.3333 C   0  0  0  0  0  0  0  0  0  0  0  0
    2.6267   23.1820    4.2189 C   0  0  0  0  0  0  0  0  0  0  0  0
    1.9992   24.3320    4.9494 C   0  0  0  0  0  0  0  0  0  0  0  0
    0.8524   24.9917    5.6564 C   0  0  0  0  0  0  0  0  0  0  0  0
   -0.1562   25.8260    6.3890 C   0  0  0  0  0  0  0  0  0  0  0  0
   -1.4469   26.2304    7.0376 N   0  0  0  0  0  0  0  0  0  0  0  0
   -1.5751   27.5829    7.6734 N   0  0  0  0  0  0  0  0  0  0  0  0
   -0.6645   28.7612    7.8531 O   0  0  0  0  0  0  0  0  0  0  0  0
   -1.7566   29.4956    8.5727 C   0  0  0  0  0  0  0  0  0  0  0  0
   -2.5139   30.5582    9.3126 C   0  0  0  0  0  0  0  0  0  0  0  0
   -3.8926   30.0365    9.5903 C   0  0  0  0  0  0  0  0  0  0  0  0
   -3.9874   28.6517    9.0220 O   0  0  0  0  0  0  0  0  0  0  0  0
   -2.6673   28.3172    8.3931 C   0  0  0  0  0  0  0  0  0  0  0  0
    0.6559   27.0638    6.6306 C   0  0  0  0  0  0  0  0  0  0  0  0
    1.4679   28.3016    6.8724 C   0  0  0  0  0  0  0  0  0  0  0  0
   -0.5114   27.6926    7.3323 C   0  0  0  0  0  0  0  0  0  0  0  0
   -0.5200   24.4477    5.9220 C   0  0  0  0  0  0  0  0  0  0  0  0
   -1.9326   24.1003    6.2879 C   0  0  0  0  0  0  0  0  0  0  0  0
   -2.3389   25.3637    6.9868 C   0  0  0  0  0  0  0  0  0  0  0  0
   -3.7605   25.1347    7.4075 C   0  0  0  0  0  0  0  0  0  0  0  0
   -3.8003   26.5041    8.0183 C   0  0  0  0  0  0  0  0  0  0  0  0
   -2.3789   26.7331    7.5977 C   0  0  0  0  0  0  0  0  0  0  0  0
   -1.1279   26.2467    6.9279 C   0  0  0  0  0  0  0  0  0  0  0  0
   -0.1837   25.3449    6.1896 N   0  0  0  0  0  0  0  0  0  0  0  0
    1.2359   25.4536    5.7172 C   0  0  0  0  0  0  0  0  0  0  0  0
    2.6554   25.5624    5.2449 C   0  0  0  0  0  0  0  0  0  0  0  0
    2.5712   24.1783    4.6730 C   0  0  0  0  0  0  0  0  0  0  0  0
    1.1517   24.0696    5.1454 C   0  0  0  0  0  0  0  0  0  0  0  0
    0.3690   22.8164    4.8863 C   0  0  0  0  0  0  0  0  0  0  0  0
   -0.2679   23.9608    5.6177 C   0  0  0  0  0  0  0  0  0  0  0  0
   -1.0846   23.1098    5.5462 C   0  0  0  0  0  0  0  0  0  0  0  0
   -1.1595   27.0042    7.2693 H   0  0  0  0  0  0  0  0  0  0  0  0
    0.4346   26.9925    6.6813 H   0  0  0  0  0  0  0  0  0  0  0  0
   -1.9483   25.5405    6.9201 H   0  0  0  0  0  0  0  0  0  0  0  0
   -1.3208   24.3903    6.1899 H   0  0  0  0  0  0  0  0  0  0  0  0
    1.2858   25.6164    5.7702 H   0  0  0  0  0  0  0  0  0  0  0  0
   -0.2432   22.4158    4.9359 H   0  0  0  0  0  0  0  0  0  0  0  0
   -2.0957   20.4931    4.7769 H   0  0  0  0  0  0  0  0  0  0  0  0
   -0.9364   19.2116    3.7945 H   0  0  0  0  0  0  0  0  0  0  0  0
   -2.0259   20.1996    4.6236 H   0  0  0  0  0  0  0  0  0  0  0  0
   -4.5130   22.0606    6.3444 H   0  0  0  0  0  0  0  0  0  0  0  0
   -5.1375   19.9211    5.6414 H   0  0  0  0  0  0  0  0  0  0  0  0
    0.0846   22.9557    5.0510 H   0  0  0  0  0  0  0  0  0  0  0  0
   -4.3773   22.8957    6.6613 H   0  0  0  0  0  0  0  0  0  0  0  0
   -2.9411   25.1711    7.1212 H   0  0  0  0  0  0  0  0  0  0  0  0
   -5.1909   25.4164    8.0538 H   0  0  0  0  0  0  0  0  0  0  0  0
   -5.1680   23.7262    7.3095 H   0  0  0  0  0  0  0  0  0  0  0  0
   -3.0667   25.8537    7.4666 H   0  0  0  0  0  0  0  0  0  0  0  0
    2.2155   21.4027    3.5947 H   0  0  0  0  0  0  0  0  0  0  0  0
    3.3619   22.5944    3.6939 H   0  0  0  0  0  0  0  0  0  0  0  0
    5.7230   23.9859    3.4354 H   0  0  0  0  0  0  0  0  0  0  0  0
    2.0107   25.9447    5.6474 H   0  0  0  0  0  0  0  0  0  0  0  0
   -2.8577   25.8697    7.3970 H   0  0  0  0  0  0  0  0  0  0  0  0
   -0.6862   30.5445    8.6376 H   0  0  0  0  0  0  0  0  0  0  0  0
   -1.2377   31.3359    9.1841 H   0  0  0  0  0  0  0  0  0  0  0  0
   -3.0043   31.7833   10.0257 H   0  0  0  0  0  0  0  0  0  0  0  0
   -4.0949   31.3708   10.2453 H   0  0  0  0  0  0  0  0  0  0  0  0
   -5.3136   29.7939   10.0048 H   0  0  0  0  0  0  0  0  0  0  0  0
   -3.6697   27.2075    8.2768 H   0  0  0  0  0  0  0  0  0  0  0  0
    1.9848   26.7532    6.0084 H   0  0  0  0  0  0  0  0  0  0  0  0
    2.2799   29.5394    7.1140 H   0  0  0  0  0  0  0  0  0  0  0  0
    0.5298   29.2136    7.6060 H   0  0  0  0  0  0  0  0  0  0  0  0
    2.7275   27.8259    6.2111 H   0  0  0  0  0  0  0  0  0  0  0  0
   -1.3100   28.7232    8.0739 H   0  0  0  0  0  0  0  0  0  0  0  0
   -0.0059   29.0457    7.7365 H   0  0  0  0  0  0  0  0  0  0  0  0
    0.3007   28.9304    7.5740 H   0  0  0  0  0  0  0  0  0  0  0  0
   -3.2722   23.4593    6.4992 H   0  0  0  0  0  0  0  0  0  0  0  0
   -5.1762   25.0743    7.8995 H   0  0  0  0  0  0  0  0  0  0  0  0
   -4.2328   23.7742    6.9880 H   0  0  0  0  0  0  0  0  0  0  0  0
   -4.1829   27.7773    8.7128 H   0  0  0  0  0  0  0  0  0  0  0  0
   -5.2160   26.4437    8.5103 H   0  0  0  0  0  0  0  0  0  0  0  0
   -2.9026   27.9415    8.3156 H   0  0  0  0  0  0  0  0  0  0  0  0
   -0.5406   27.5779    7.2926 H   0  0  0  0  0  0  0  0  0  0  0  0
    1.9768   26.7268    6.0004 H   0  0  0  0  0  0  0  0  0  0  0  0
    4.0750   25.6712    4.7726 H   0  0  0  0  0  0  0  0  0  0  0  0
    2.9120   26.9496    5.7550 H   0  0  0  0  0  0  0  0  0  0  0  0
    3.1635   23.0073    3.9464 H   0  0  0  0  0  0  0  0  0  0  0  0
    3.9908   24.2871    4.2007 H   0  0  0  0  0  0  0  0  0  0  0  0
    1.6080   22.3075    4.2111 H   0  0  0  0  0  0  0  0  0  0  0  0
   -0.5335   21.6326    4.7012 H   0  0  0  0  0  0  0  0  0  0  0  0
   -1.4657   23.0591    5.6636 H   0  0  0  0  0  0  0  0  0  0  0  0
   -2.4346   22.4967    5.7735 H   0  0  0  0  0  0  0  0  0  0  0  0
  1  2  1  0
  2  3  1  0
  3  4  1  0
  4  5  1  0
  5  6  1  0
  6  7  1  0
  7  8  1  0
  8  9  1  0
  8 10  1  0
 10 11  1  0
 10 12  1  0
 12 13  1  0
  6 14  1  0
 14 15  1  0
 15 16  1  0
 16 17  1  0
 17 18  1  0
 18 19  1  0
 19 20  1  0
 20 21  1  0
 21 22  1  0
 22 23  1  0
 23 24  1  0
 24 25  1  0
 25 26  1  0
 26 27  1  0
 19 28  1  0
 28 29  1  0
 28 30  1  0
 19 31  1  0
 31 32  1  0
 32 33  1  0
 33 34  1  0
 34 35  1  0
 35 36  1  0
 36 37  1  0
 37 38  1  0
 38 39  1  0
 39 40  1  0
 40 41  1  0
 41 42  1  0
 42 43  1  0
 43 44  1  0
 32 45  1  0
 17  3  1  0
 31 18  1  0
 36 33  1  0
 44 38  1  0
 14  4  1  0
 17 15  1  0
 27 21  1  0
 45 31  1  0
 16  4  1  0
 27 23  1  0
 37 33  1  0
 42 39  1  0
 45  6  1  0
 10  7  1  0
 44 42  1  0
  1 46  1  0
  1 47  1  0
  1 48  1  0
  2 49  1  0
  2 50  1  0
  3 51  1  0
  5 52  1  0
  5 53  1  0
  7 54  1  0
  8 55  1  0
  9 56  1  0
 11 57  1  0
 12 58  1  0
 12 59  1  0
 13 60  1  0
 13 61  1  0
 13 62  1  0
 14 63  1  0
 15 64  1  0
 16 65  1  0
 18 66  1  0
 20 67  1  0
 23 68  1  0
 24 69  1  0
 24 70  1  0
 25 71  1  0
 25 72  1  0
 27 73  1  0
 28 74  1  0
 29 75  1  0
 29 76  1  0
 29 77  1  0
 30 78  1  0
 30 79  1  0
 30 80  1  0
 32 81  1  0
 34 82  1  0
 34 83  1  0
 35 84  1  0
 35 85  1  0
 36 86  1  0
 37 87  1  0
 39 88  1  0
 40 89  1  0
 40 90  1  0
 41 91  1  0
 41 92  1  0
 43 93  1  0
 43 94  1  0
 44 95  1  0
 45 96  1  0
M  END
