
     RDKit          2D

 24 25  0  0  0  0  0  0  0  0999 V2000
   -3.1717   28.3026    6.1978 C   0  0  0  0  0  0  0  0  0  0  0  0
   -2.7564   27.8771    4.8207 N   0  0  0  0  0  0  0  0  0  0  0  0
   -2.9648   27.9011    3.3355 C   0  0  0  0  0  0  0  0  0  0  0  0
   -1.8285   27.1160    3.9208 C   0  0  0  0  0  0  0  0  0  0  0  0
   -1.2222   26.5606    2.6663 O   0  0  0  0  0  0  0  0  0  0  0  0
   -0.9029   26.5239    4.9417 C   0  0  0  0  0  0  0  0  0  0  0  0
    0.0228   25.9316    5.9627 C   0  0  0  0  0  0  0  0  0  0  0  0
    0.9485   25.3395    6.9838 C   0  0  0  0  0  0  0  0  0  0  0  0
    2.0847   24.5544    7.5691 O   0  0  0  0  0  0  0  0  0  0  0  0
    1.8763   24.5784    6.0838 C   0  0  0  0  0  0  0  0  0  0  0  0
    3.0137   23.7035    5.6470 O   0  0  0  0  0  0  0  0  0  0  0  0
   -3.5871   28.7282    7.5749 H   0  0  0  0  0  0  0  0  0  0  0  0
   -4.1366   29.2851    5.6032 H   0  0  0  0  0  0  0  0  0  0  0  0
   -2.2646   27.3793    6.9559 H   0  0  0  0  0  0  0  0  0  0  0  0
   -2.7531   27.6184    1.8777 H   0  0  0  0  0  0  0  0  0  0  0  0
   -4.1746   28.7843    3.2565 H   0  0  0  0  0  0  0  0  0  0  0  0
   -0.0124   25.6773    2.7452 H   0  0  0  0  0  0  0  0  0  0  0  0
   -0.1246   25.8545    3.8480 H   0  0  0  0  0  0  0  0  0  0  0  0
   -1.5624   27.1160    6.1519 H   0  0  0  0  0  0  0  0  0  0  0  0
   -0.7564   26.5997    7.0567 H   0  0  0  0  0  0  0  0  0  0  0  0
    0.6173   25.3999    4.8735 H   0  0  0  0  0  0  0  0  0  0  0  0
    0.3421   25.8949    8.2383 H   0  0  0  0  0  0  0  0  0  0  0  0
    1.4523   24.7802    4.8181 H   0  0  0  0  0  0  0  0  0  0  0  0
    3.2254   23.4207    4.1891 H   0  0  0  0  0  0  0  0  0  0  0  0
  1  2  1  0
  2  3  1  0
  3  4  1  0
  4  5  1  0
  4  6  1  0
  6  7  1  0
  7  8  1  0
  8  9  1  0
  9 10  1  0
 10 11  1  0
  4  2  1  0
 10  8  1  0
  1 12  1  0
  1 13  1  0
  1 14  1  0
  3 15  1  0
  3 16  1  0
  5 17  1  0
  6 18  1  0
  6 19  1  0
  7 20  1  0
  7 21  1  0
  8 22  1  0
 10 23  1  0
 11 24  1  0
M  END
