
     RDKit          2D

 21 21  0  0  0  0  0  0  0  0999 V2000
   10.4566  -13.8377    4.2894 C   0  0  0  0  0  0  0  0  0  0  0  0
   10.9491  -13.0553    3.1083 C   0  0  0  0  0  0  0  0  0  0  0  0
   11.4077  -13.7713    1.8726 C   0  0  0  0  0  0  0  0  0  0  0  0
   11.8663  -14.4873    0.6368 C   0  0  0  0  0  0  0  0  0  0  0  0
   13.3202  -14.6624    0.9617 C   0  0  0  0  0  0  0  0  0  0  0  0
   12.7745  -15.1778   -0.3370 C   0  0  0  0  0  0  0  0  0  0  0  0
   14.0228  -15.7594   -0.9316 F   0  0  0  0  0  0  0  0  0  0  0  0
   11.7953  -15.4911   -1.4292 N   0  0  0  0  0  0  0  0  0  0  0  0
   12.2539  -16.2072   -2.6650 C   0  0  0  0  0  0  0  0  0  0  0  0
   10.3575  -15.0885   -1.2857 F   0  0  0  0  0  0  0  0  0  0  0  0
    9.9979  -13.1217    5.5251 H   0  0  0  0  0  0  0  0  0  0  0  0
   10.4227  -15.3364    4.2348 H   0  0  0  0  0  0  0  0  0  0  0  0
   10.9830  -11.5566    3.1629 H   0  0  0  0  0  0  0  0  0  0  0  0
   12.6044  -13.7372    2.4966 H   0  0  0  0  0  0  0  0  0  0  0  0
   10.0118  -13.7215    1.3257 H   0  0  0  0  0  0  0  0  0  0  0  0
   10.5717  -14.5609   -0.1172 H   0  0  0  0  0  0  0  0  0  0  0  0
   14.7580  -15.0650    0.8182 H   0  0  0  0  0  0  0  0  0  0  0  0
   13.5227  -14.1093    2.1764 H   0  0  0  0  0  0  0  0  0  0  0  0
   12.7124  -16.9232   -3.9007 H   0  0  0  0  0  0  0  0  0  0  0  0
   10.8579  -16.1580   -3.2115 H   0  0  0  0  0  0  0  0  0  0  0  0
   13.6499  -16.2563   -2.1184 H   0  0  0  0  0  0  0  0  0  0  0  0
  1  2  2  3
  2  3  1  0
  3  4  1  0
  4  5  1  0
  5  6  1  0
  6  7  1  0
  6  8  1  0
  8  9  1  0
  8 10  1  0
  6  4  1  0
  1 11  1  0
  1 12  1  0
  2 13  1  0
  3 14  1  0
  3 15  1  0
  4 16  1  0
  5 17  1  0
  5 18  1  0
  9 19  1  0
  9 20  1  0
  9 21  1  0
M  END
