
     RDKit          2D

 63 69  0  0  0  0  0  0  0  0999 V2000
   -5.9554   29.2079    9.9445 C   0  0  0  0  0  0  0  0  0  0  0  0
   -5.4819   28.6074    8.6542 C   0  0  0  0  0  0  0  0  0  0  0  0
   -6.4650   28.3050    7.5623 C   0  0  0  0  0  0  0  0  0  0  0  0
   -5.5382   27.7415    6.5262 C   0  0  0  0  0  0  0  0  0  0  0  0
   -4.6114   27.1779    5.4901 C   0  0  0  0  0  0  0  0  0  0  0  0
   -3.3433   26.7194    4.8332 C   0  0  0  0  0  0  0  0  0  0  0  0
   -2.0384   26.8260    5.5652 C   0  0  0  0  0  0  0  0  0  0  0  0
   -0.7703   26.3674    4.9083 C   0  0  0  0  0  0  0  0  0  0  0  0
    0.4978   25.9088    4.2513 N   0  0  0  0  0  0  0  0  0  0  0  0
    0.3501   25.3605    2.8630 N   0  0  0  0  0  0  0  0  0  0  0  0
    1.4142   24.8271    1.9501 C   0  0  0  0  0  0  0  0  0  0  0  0
    2.8886   24.7104    2.1999 C   0  0  0  0  0  0  0  0  0  0  0  0
    4.3741   24.5072    2.2433 C   0  0  0  0  0  0  0  0  0  0  0  0
    3.6632   25.0982    3.4245 C   0  0  0  0  0  0  0  0  0  0  0  0
    4.9313   24.6396    2.7676 C   0  0  0  0  0  0  0  0  0  0  0  0
    4.1567   24.2518    1.5430 C   0  0  0  0  0  0  0  0  0  0  0  0
    3.3822   23.8640    0.3184 C   0  0  0  0  0  0  0  0  0  0  0  0
    3.1546   25.6985    4.7016 C   0  0  0  0  0  0  0  0  0  0  0  0
    4.5850   25.6709    5.1525 C   0  0  0  0  0  0  0  0  0  0  0  0
    6.0155   25.6433    5.6034 C   0  0  0  0  0  0  0  0  0  0  0  0
    7.2218   25.8226    6.4766 C   0  0  0  0  0  0  0  0  0  0  0  0
    5.8672   26.2293    6.9762 C   0  0  0  0  0  0  0  0  0  0  0  0
    2.8600   26.2947    6.0461 C   0  0  0  0  0  0  0  0  0  0  0  0
    1.7460   26.0593    5.0697 C   0  0  0  0  0  0  0  0  0  0  0  0
   -5.1540   26.7164    4.1700 C   0  0  0  0  0  0  0  0  0  0  0  0
   -6.6234   26.8183    3.8861 C   0  0  0  0  0  0  0  0  0  0  0  0
   -7.5501   27.3819    4.9222 C   0  0  0  0  0  0  0  0  0  0  0  0
   -7.0075   27.8435    6.2423 N   0  0  0  0  0  0  0  0  0  0  0  0
   -4.9724   29.5102   11.0365 H   0  0  0  0  0  0  0  0  0  0  0  0
   -7.4120   29.5062   10.1431 H   0  0  0  0  0  0  0  0  0  0  0  0
   -4.0252   28.3091    8.4557 H   0  0  0  0  0  0  0  0  0  0  0  0
   -7.7331   28.7636    8.2192 H   0  0  0  0  0  0  0  0  0  0  0  0
   -4.3766   27.9491    7.4522 H   0  0  0  0  0  0  0  0  0  0  0  0
   -3.6284   27.4802    6.5820 H   0  0  0  0  0  0  0  0  0  0  0  0
   -3.1987   26.1336    3.4597 H   0  0  0  0  0  0  0  0  0  0  0  0
   -2.0017   27.3911    6.9541 H   0  0  0  0  0  0  0  0  0  0  0  0
   -0.3580   26.0807    6.3217 H   0  0  0  0  0  0  0  0  0  0  0  0
   -1.3414   26.7126    3.5649 H   0  0  0  0  0  0  0  0  0  0  0  0
   -1.0461   25.3432    2.3152 H   0  0  0  0  0  0  0  0  0  0  0  0
    0.1660   24.6766    1.1318 H   0  0  0  0  0  0  0  0  0  0  0  0
    1.7487   24.2292    0.6157 H   0  0  0  0  0  0  0  0  0  0  0  0
    4.7734   23.9073    0.9277 H   0  0  0  0  0  0  0  0  0  0  0  0
    5.1477   24.4695    2.4318 H   0  0  0  0  0  0  0  0  0  0  0  0
    6.0273   24.3093    2.3604 H   0  0  0  0  0  0  0  0  0  0  0  0
    5.8547   24.9687    3.9030 H   0  0  0  0  0  0  0  0  0  0  0  0
    5.3210   23.7494    0.7418 H   0  0  0  0  0  0  0  0  0  0  0  0
    2.6076   23.4762   -0.9061 H   0  0  0  0  0  0  0  0  0  0  0  0
    4.6047   24.0801   -0.5233 H   0  0  0  0  0  0  0  0  0  0  0  0
    2.0743   23.6022    1.0047 H   0  0  0  0  0  0  0  0  0  0  0  0
    4.2457   26.5935    6.2855 H   0  0  0  0  0  0  0  0  0  0  0  0
    5.0962   24.7519    4.0829 H   0  0  0  0  0  0  0  0  0  0  0  0
    6.6605   25.0477    4.3872 H   0  0  0  0  0  0  0  0  0  0  0  0
    8.2858   25.2892    5.5636 H   0  0  0  0  0  0  0  0  0  0  0  0
    8.0586   26.1870    7.6669 H   0  0  0  0  0  0  0  0  0  0  0  0
    6.2335   26.7351    8.3399 H   0  0  0  0  0  0  0  0  0  0  0  0
    4.4561   26.5877    7.3375 H   0  0  0  0  0  0  0  0  0  0  0  0
    4.0705   26.4711    6.9140 H   0  0  0  0  0  0  0  0  0  0  0  0
    2.0849   26.8797    7.1894 H   0  0  0  0  0  0  0  0  0  0  0  0
    0.9996   26.6472    6.2303 H   0  0  0  0  0  0  0  0  0  0  0  0
   -5.1908   26.1512    2.7810 H   0  0  0  0  0  0  0  0  0  0  0  0
   -3.7442   26.3567    3.8053 H   0  0  0  0  0  0  0  0  0  0  0  0
   -7.1660   26.3568    2.5661 H   0  0  0  0  0  0  0  0  0  0  0  0
   -9.0195   27.4839    4.6383 H   0  0  0  0  0  0  0  0  0  0  0  0
  1  2  2  3
  2  3  1  0
  3  4  1  0
  4  5  1  0
  5  6  1  0
  6  7  2  3
  7  8  1  0
  8  9  1  0
  9 10  1  0
 10 11  1  0
 12 11  1  6
 12 13  1  0
 14 13  1  6
 14 15  1  0
 15 16  1  0
 16 17  1  0
 14 18  1  0
 18 19  1  6
 19 20  1  0
 20 21  1  0
 21 22  1  0
 18 23  1  0
 23 24  1  0
  5 25  1  0
 25 26  1  0
 26 27  2  0
 27 28  1  0
 28  3  1  0
 28  4  1  0
 24  9  1  0
 14 12  1  0
 24 18  1  0
 16 12  1  0
 22 20  1  0
  1 29  1  0
  1 30  1  0
  2 31  1  0
  3 32  1  1
  4 33  1  1
  5 34  1  6
  6 35  1  0
  7 36  1  0
  8 37  1  0
  8 38  1  0
 10 39  1  0
 11 40  1  0
 11 41  1  0
 13 42  1  0
 13 43  1  0
 15 44  1  0
 15 45  1  0
 16 46  1  1
 17 47  1  0
 17 48  1  0
 17 49  1  0
 19 50  1  0
 19 51  1  0
 20 52  1  0
 21 53  1  0
 21 54  1  0
 22 55  1  0
 22 56  1  0
 23 57  1  0
 23 58  1  0
 24 59  1  6
 25 60  1  0
 25 61  1  0
 26 62  1  0
 27 63  1  0
M  END
