
     RDKit          2D

 54 55  0  0  0  0  0  0  0  0999 V2000
    4.5882   18.8450    3.7411 C   0  0  0  0  0  0  0  0  0  0  0  0
    4.2297   20.1690    4.3481 C   0  0  0  0  0  0  0  0  0  0  0  0
    3.8710   21.4930    4.9550 C   0  0  0  0  0  0  0  0  0  0  0  0
    4.2707   22.7297    5.7039 C   0  0  0  0  0  0  0  0  0  0  0  0
    3.5566   23.9619    6.1747 C   0  0  0  0  0  0  0  0  0  0  0  0
    2.1470   24.4679    6.0916 C   0  0  0  0  0  0  0  0  0  0  0  0
    0.8676   23.9512    5.5033 C   0  0  0  0  0  0  0  0  0  0  0  0
    0.5089   25.2752    6.1102 C   0  0  0  0  0  0  0  0  0  0  0  0
   -0.8279   24.8678    5.5652 C   0  0  0  0  0  0  0  0  0  0  0  0
   -2.0158   25.7663    5.7433 C   0  0  0  0  0  0  0  0  0  0  0  0
   -1.8669   27.0721    6.4663 C   0  0  0  0  0  0  0  0  0  0  0  0
   -2.2255   28.3960    7.0733 C   0  0  0  0  0  0  0  0  0  0  0  0
   -2.5842   29.7201    7.6803 C   0  0  0  0  0  0  0  0  0  0  0  0
   -3.6499   28.2077    6.6425 C   0  0  0  0  0  0  0  0  0  0  0  0
   -0.5301   27.4794    7.0114 N   0  0  0  0  0  0  0  0  0  0  0  0
    0.6578   26.5809    6.8333 C   0  0  0  0  0  0  0  0  0  0  0  0
    0.4678   22.7145    4.7544 C   0  0  0  0  0  0  0  0  0  0  0  0
    1.1819   21.4823    4.2837 C   0  0  0  0  0  0  0  0  0  0  0  0
    2.5916   20.9763    4.3668 C   0  0  0  0  0  0  0  0  0  0  0  0
    2.0588   19.9375    3.6889 F   0  0  0  0  0  0  0  0  0  0  0  0
    4.9469   17.5211    3.1341 H   0  0  0  0  0  0  0  0  0  0  0  0
    6.0079   19.0231    4.1914 H   0  0  0  0  0  0  0  0  0  0  0  0
    3.1686   18.6669    3.2907 H   0  0  0  0  0  0  0  0  0  0  0  0
    3.0003   19.8638    3.8808 H   0  0  0  0  0  0  0  0  0  0  0  0
    5.6498   20.3481    4.7965 H   0  0  0  0  0  0  0  0  0  0  0  0
    5.3225   21.1641    5.1416 H   0  0  0  0  0  0  0  0  0  0  0  0
    5.6110   22.0566    5.6820 H   0  0  0  0  0  0  0  0  0  0  0  0
    5.4383   23.4128    6.3520 H   0  0  0  0  0  0  0  0  0  0  0  0
    4.9230   24.3021    6.6917 H   0  0  0  0  0  0  0  0  0  0  0  0
    3.7563   25.2570    6.9047 H   0  0  0  0  0  0  0  0  0  0  0  0
    2.6797   25.5068    6.7694 H   0  0  0  0  0  0  0  0  0  0  0  0
    1.8066   25.2235    6.4044 H   0  0  0  0  0  0  0  0  0  0  0  0
   -0.5975   24.1199    5.2292 H   0  0  0  0  0  0  0  0  0  0  0  0
    1.2728   25.3340    6.3303 H   0  0  0  0  0  0  0  0  0  0  0  0
   -1.8789   24.0499    4.8752 H   0  0  0  0  0  0  0  0  0  0  0  0
   -0.3228   23.5700    5.0082 H   0  0  0  0  0  0  0  0  0  0  0  0
   -3.4637   26.1177    5.5695 H   0  0  0  0  0  0  0  0  0  0  0  0
   -2.6542   24.6363    4.9914 H   0  0  0  0  0  0  0  0  0  0  0  0
   -3.3044   26.9614    6.0523 H   0  0  0  0  0  0  0  0  0  0  0  0
   -0.8555   28.7444    7.5749 H   0  0  0  0  0  0  0  0  0  0  0  0
   -2.9428   31.0440    8.2873 H   0  0  0  0  0  0  0  0  0  0  0  0
   -4.0307   29.7173    7.2834 H   0  0  0  0  0  0  0  0  0  0  0  0
   -1.1708   29.8853    8.1547 H   0  0  0  0  0  0  0  0  0  0  0  0
   -5.0743   28.0194    6.2117 H   0  0  0  0  0  0  0  0  0  0  0  0
   -4.1777   29.5030    7.1847 H   0  0  0  0  0  0  0  0  0  0  0  0
   -3.6485   26.8735    5.9569 H   0  0  0  0  0  0  0  0  0  0  0  0
   -0.2046   28.7408    7.7549 H   0  0  0  0  0  0  0  0  0  0  0  0
    2.0675   26.0750    6.9165 H   0  0  0  0  0  0  0  0  0  0  0  0
    1.2963   27.7110    7.5853 H   0  0  0  0  0  0  0  0  0  0  0  0
   -0.9346   23.2419    4.6844 H   0  0  0  0  0  0  0  0  0  0  0  0
   -0.6998   22.0314    4.1063 H   0  0  0  0  0  0  0  0  0  0  0  0
   -0.1844   21.1421    3.7666 H   0  0  0  0  0  0  0  0  0  0  0  0
    0.9822   20.1872    3.5536 H   0  0  0  0  0  0  0  0  0  0  0  0
    3.1679   19.6967    3.8370 H   0  0  0  0  0  0  0  0  0  0  0  0
  1  2  1  0
  2  3  1  0
  3  4  1  0
  4  5  1  0
  5  6  1  0
  6  7  1  0
  7  8  1  0
  8  9  1  0
  9 10  1  0
 10 11  1  0
 11 12  1  0
 12 13  1  0
 12 14  1  0
 11 15  1  0
 15 16  1  0
  7 17  1  0
 17 18  1  0
 18 19  1  0
 19 20  1  0
 19  3  1  0
 16  8  1  0
  1 21  1  0
  1 22  1  0
  1 23  1  0
  2 24  1  0
  2 25  1  0
  3 26  1  0
  4 27  1  0
  4 28  1  0
  5 29  1  0
  5 30  1  0
  6 31  1  0
  6 32  1  0
  7 33  1  0
  8 34  1  0
  9 35  1  0
  9 36  1  0
 10 37  1  0
 10 38  1  0
 11 39  1  0
 12 40  1  0
 13 41  1  0
 13 42  1  0
 13 43  1  0
 14 44  1  0
 14 45  1  0
 14 46  1  0
 15 47  1  0
 16 48  1  0
 16 49  1  0
 17 50  1  0
 17 51  1  0
 18 52  1  0
 18 53  1  0
 19 54  1  0
M  END
