
     RDKit          2D

 81 88  0  0  0  0  0  0  0  0999 V2000
    6.0941   27.4794    2.3608 C   0  0  0  0  0  0  0  0  0  0  0  0
    5.6376   26.0575    2.5013 O   0  0  0  0  0  0  0  0  0  0  0  0
    4.2650   25.7590    3.0276 C   0  0  0  0  0  0  0  0  0  0  0  0
    4.4817   24.2983    2.7643 C   0  0  0  0  0  0  0  0  0  0  0  0
    4.0483   27.2198    3.2909 C   0  0  0  0  0  0  0  0  0  0  0  0
    2.8924   25.4606    3.5539 C   0  0  0  0  0  0  0  0  0  0  0  0
    1.6704   26.1766    4.0480 C   0  0  0  0  0  0  0  0  0  0  0  0
    0.2726   26.1378    4.5909 C   0  0  0  0  0  0  0  0  0  0  0  0
   -0.9264   25.3547    5.0370 C   0  0  0  0  0  0  0  0  0  0  0  0
   -1.6055   24.0371    5.2669 C   0  0  0  0  0  0  0  0  0  0  0  0
   -2.5215   25.1605    5.6526 N   0  0  0  0  0  0  0  0  0  0  0  0
   -3.8941   24.8621    6.1789 N   0  0  0  0  0  0  0  0  0  0  0  0
   -4.4862   23.4977    6.3737 C   0  0  0  0  0  0  0  0  0  0  0  0
   -5.8735   23.6681    6.9180 C   0  0  0  0  0  0  0  0  0  0  0  0
   -5.8995   22.1686    6.8889 F   0  0  0  0  0  0  0  0  0  0  0  0
   -6.1389   25.1376    7.0595 C   0  0  0  0  0  0  0  0  0  0  0  0
   -6.8153   26.4430    7.3568 C   0  0  0  0  0  0  0  0  0  0  0  0
   -8.1587   26.8442    7.8900 C   0  0  0  0  0  0  0  0  0  0  0  0
   -0.5963   27.3234    4.9599 C   0  0  0  0  0  0  0  0  0  0  0  0
   -0.7681   25.8335    4.9879 O   0  0  0  0  0  0  0  0  0  0  0  0
   -2.1555   26.0037    5.5322 C   0  0  0  0  0  0  0  0  0  0  0  0
   -3.5429   26.1741    6.0765 C   0  0  0  0  0  0  0  0  0  0  0  0
   -3.3710   27.6638    6.0485 C   0  0  0  0  0  0  0  0  0  0  0  0
   -4.6373   28.2862    6.5574 C   0  0  0  0  0  0  0  0  0  0  0  0
   -5.5919   27.1810    6.9000 C   0  0  0  0  0  0  0  0  0  0  0  0
   -4.9154   25.8755    6.6027 C   0  0  0  0  0  0  0  0  0  0  0  0
   -1.9837   27.4937    5.5042 N   0  0  0  0  0  0  0  0  0  0  0  0
   -1.5825   22.5380    5.2189 C   0  0  0  0  0  0  0  0  0  0  0  0
   -0.1619   21.0778    4.6280 C   0  0  0  0  0  0  0  0  0  0  0  0
    1.0372   21.8609    4.1819 C   0  0  0  0  0  0  0  0  0  0  0  0
    1.7560   20.5820    3.8688 C   0  0  0  0  0  0  0  0  0  0  0  0
    3.0605   20.0564    3.3475 Cl  0  0  0  0  0  0  0  0  0  0  0  0
    2.9550   21.3651    3.4227 C   0  0  0  0  0  0  0  0  0  0  0  0
    3.6340   22.6826    3.1929 C   0  0  0  0  0  0  0  0  0  0  0  0
    3.6112   24.1818    3.2409 C   0  0  0  0  0  0  0  0  0  0  0  0
    0.5569   19.7989    4.3150 C   0  0  0  0  0  0  0  0  0  0  0  0
    6.5507   28.9013    2.2202 H   0  0  0  0  0  0  0  0  0  0  0  0
    7.4166   27.0030    1.8375 H   0  0  0  0  0  0  0  0  0  0  0  0
    4.8370   28.1256    2.8630 H   0  0  0  0  0  0  0  0  0  0  0  0
    5.0490   22.9391    2.4803 H   0  0  0  0  0  0  0  0  0  0  0  0
    5.9576   24.5385    2.6465 H   0  0  0  0  0  0  0  0  0  0  0  0
    3.1020   23.7118    2.8149 H   0  0  0  0  0  0  0  0  0  0  0  0
    3.8316   28.6804    3.5542 H   0  0  0  0  0  0  0  0  0  0  0  0
    5.3487   27.9674    3.2760 H   0  0  0  0  0  0  0  0  0  0  0  0
    2.5636   27.3403    3.4681 H   0  0  0  0  0  0  0  0  0  0  0  0
    3.1126   26.9436    3.5069 H   0  0  0  0  0  0  0  0  0  0  0  0
    2.4734   27.4121    3.7678 H   0  0  0  0  0  0  0  0  0  0  0  0
    1.3337   27.6285    4.2169 H   0  0  0  0  0  0  0  0  0  0  0  0
    0.7292   27.5597    4.4503 H   0  0  0  0  0  0  0  0  0  0  0  0
   -0.4249   27.4302    4.8961 H   0  0  0  0  0  0  0  0  0  0  0  0
   -1.3570   26.7769    5.2417 H   0  0  0  0  0  0  0  0  0  0  0  0
    0.4109   25.8051    4.5284 H   0  0  0  0  0  0  0  0  0  0  0  0
   -2.9111   23.4880    5.7606 H   0  0  0  0  0  0  0  0  0  0  0  0
   -1.7588   26.4249    5.3888 H   0  0  0  0  0  0  0  0  0  0  0  0
   -3.3146   22.6915    5.8968 H   0  0  0  0  0  0  0  0  0  0  0  0
   -4.8021   22.0338    6.4585 H   0  0  0  0  0  0  0  0  0  0  0  0
   -7.2664   23.5247    7.4562 H   0  0  0  0  0  0  0  0  0  0  0  0
   -7.4530   24.6129    7.5572 H   0  0  0  0  0  0  0  0  0  0  0  0
   -9.5021   27.2455    8.4232 H   0  0  0  0  0  0  0  0  0  0  0  0
   -8.5481   25.3996    7.9961 H   0  0  0  0  0  0  0  0  0  0  0  0
   -7.7693   28.2889    7.7839 H   0  0  0  0  0  0  0  0  0  0  0  0
    0.3933   28.3926    4.6028 H   0  0  0  0  0  0  0  0  0  0  0  0
   -1.9865   24.5170    5.4277 H   0  0  0  0  0  0  0  0  0  0  0  0
   -3.1590   24.7361    5.8896 H   0  0  0  0  0  0  0  0  0  0  0  0
   -2.9842   29.1088    5.9357 H   0  0  0  0  0  0  0  0  0  0  0  0
   -3.9161   29.5780    6.3105 H   0  0  0  0  0  0  0  0  0  0  0  0
   -5.7530   29.1785    7.0148 H   0  0  0  0  0  0  0  0  0  0  0  0
   -6.4514   28.3548    7.2651 H   0  0  0  0  0  0  0  0  0  0  0  0
   -2.9751   22.6562    5.7638 H   0  0  0  0  0  0  0  0  0  0  0  0
   -2.4634   21.3648    5.5310 H   0  0  0  0  0  0  0  0  0  0  0  0
   -1.5179   21.4284    5.1648 H   0  0  0  0  0  0  0  0  0  0  0  0
    2.2363   22.6439    3.7357 H   0  0  0  0  0  0  0  0  0  0  0  0
    0.3185   23.1397    4.4949 H   0  0  0  0  0  0  0  0  0  0  0  0
    3.3856   19.9429    3.2181 H   0  0  0  0  0  0  0  0  0  0  0  0
    4.2984   20.9638    2.8896 H   0  0  0  0  0  0  0  0  0  0  0  0
    4.6720   21.6886    2.7631 H   0  0  0  0  0  0  0  0  0  0  0  0
    5.0218   22.8778    2.6580 H   0  0  0  0  0  0  0  0  0  0  0  0
    4.7827   23.3755    2.7640 H   0  0  0  0  0  0  0  0  0  0  0  0
    4.7285   25.0941    2.8299 H   0  0  0  0  0  0  0  0  0  0  0  0
   -0.6422   19.0158    4.7611 H   0  0  0  0  0  0  0  0  0  0  0  0
    1.2756   18.5200    4.0020 H   0  0  0  0  0  0  0  0  0  0  0  0
  1  2  1  0
  2  3  1  0
  3  4  1  0
  3  5  1  0
  3  6  1  0
  6  7  1  0
  7  8  1  0
  8  9  1  0
  9 10  1  0
 10 11  1  0
 11 12  1  0
 12 13  1  0
 13 14  1  0
 14 15  1  0
 14 16  1  0
 16 17  1  0
 17 18  1  0
 17 19  1  0
 19 20  1  0
 20 21  1  0
 21 22  1  0
 22 23  1  0
 23 24  1  0
 24 25  1  0
 25 26  1  0
 23 27  1  0
 10 28  1  0
 28 29  1  0
 29 30  1  0
 30 31  1  0
 31 32  1  0
 31 33  1  0
 33 34  1  0
 34 35  1  0
 31 36  1  0
 35  6  1  0
 26 12  1  0
 36 29  1  0
 26 16  1  0
 25 17  1  0
 27 19  1  0
 27 21  1  0
 26 22  1  0
  1 37  1  0
  1 38  1  0
  1 39  1  0
  4 40  1  0
  4 41  1  0
  4 42  1  0
  5 43  1  0
  5 44  1  0
  5 45  1  0
  6 46  1  0
  7 47  1  0
  7 48  1  0
  8 49  1  0
  8 50  1  0
  9 51  1  0
  9 52  1  0
 10 53  1  0
 11 54  1  0
 13 55  1  0
 13 56  1  0
 14 57  1  0
 16 58  1  0
 18 59  1  0
 18 60  1  0
 18 61  1  0
 19 62  1  0
 21 63  1  0
 22 64  1  0
 23 65  1  0
 24 66  1  0
 24 67  1  0
 25 68  1  0
 28 69  1  0
 28 70  1  0
 29 71  1  0
 30 72  1  0
 30 73  1  0
 33 74  1  0
 33 75  1  0
 34 76  1  0
 34 77  1  0
 35 78  1  0
 35 79  1  0
 36 80  1  0
 36 81  1  0
M  END
