
     RDKit          2D

 96108  0  0  0  0  0  0  0  0999 V2000
   24.2571  -17.0568  -19.5925 C   0  0  0  0  0  0  0  0  0  0  0  0
   23.2645  -18.1691  -19.7581 C   0  0  0  0  0  0  0  0  0  0  0  0
   22.2093  -18.3941  -18.7160 C   0  0  0  0  0  0  0  0  0  0  0  0
   21.1541  -18.6191  -17.6739 C   0  0  0  0  0  0  0  0  0  0  0  0
   20.0988  -18.8440  -16.6319 C   0  0  0  0  0  0  0  0  0  0  0  0
   19.2932  -17.8948  -17.4685 O   0  0  0  0  0  0  0  0  0  0  0  0
   19.8826  -17.3108  -18.7181 C   0  0  0  0  0  0  0  0  0  0  0  0
   21.1250  -19.7462  -16.0131 C   0  0  0  0  0  0  0  0  0  0  0  0
   20.5357  -20.3303  -14.7635 C   0  0  0  0  0  0  0  0  0  0  0  0
   20.8056  -21.2488  -13.6088 C   0  0  0  0  0  0  0  0  0  0  0  0
   19.5820  -21.2753  -12.7416 C   0  0  0  0  0  0  0  0  0  0  0  0
   18.5557  -20.3732  -13.3604 C   0  0  0  0  0  0  0  0  0  0  0  0
   17.2851  -19.6143  -13.6051 O   0  0  0  0  0  0  0  0  0  0  0  0
   17.8745  -19.0302  -14.8547 Mg  0  0  0  0  0  2  0  0  0  0  0  0
   19.1452  -19.7891  -14.6100 C   0  0  0  0  0  0  0  0  0  0  0  0
   18.8751  -18.8705  -15.7647 C   0  0  0  0  0  0  0  0  0  0  0  0
   18.2292  -21.1014  -12.0789 O   0  0  0  0  0  0  0  0  0  0  0  0
   19.3495  -21.9651  -11.5799 C   0  0  0  0  0  0  0  0  0  0  0  0
   18.2037  -22.0915  -10.6200 C   0  0  0  0  0  0  0  0  0  0  0  0
   16.9507  -22.0750   -9.7956 C   0  0  0  0  0  0  0  0  0  0  0  0
   16.6194  -21.1453  -10.9251 C   0  0  0  0  0  0  0  0  0  0  0  0
   16.6588  -22.8133   -8.5229 C   0  0  0  0  0  0  0  0  0  0  0  0
   15.2979  -22.5842   -7.9351 C   0  0  0  0  0  0  0  0  0  0  0  0
   17.5680  -24.6059   -6.5284 C   0  0  0  0  0  0  0  0  0  0  0  0
   18.9685  -25.0362   -6.8501 C   0  0  0  0  0  0  0  0  0  0  0  0
   18.9482  -24.1807   -8.0821 C   0  0  0  0  0  0  0  0  0  0  0  0
   17.5478  -23.7504   -7.7603 C   0  0  0  0  0  0  0  0  0  0  0  0
   19.8056  -23.7801   -9.2459 C   0  0  0  0  0  0  0  0  0  0  0  0
   20.8179  -24.3133   -9.1549 C   0  0  0  0  0  0  0  0  0  0  0  0
   20.0990  -24.8149   -7.9377 C   0  0  0  0  0  0  0  0  0  0  0  0
   19.3800  -25.3165   -6.7205 C   0  0  0  0  0  0  0  0  0  0  0  0
   18.6610  -25.8181   -5.5034 C   0  0  0  0  0  0  0  0  0  0  0  0
   17.6291  -25.9253   -4.4200 C   0  0  0  0  0  0  0  0  0  0  0  0
   17.5101  -24.8568   -5.4661 C   0  0  0  0  0  0  0  0  0  0  0  0
   22.0416  -24.2869  -10.0219 C   0  0  0  0  0  0  0  0  0  0  0  0
   22.7607  -23.7853  -11.2392 C   0  0  0  0  0  0  0  0  0  0  0  0
   23.4796  -23.2837  -12.4563 C   0  0  0  0  0  0  0  0  0  0  0  0
   21.5587  -22.9696  -11.6130 C   0  0  0  0  0  0  0  0  0  0  0  0
   20.6376  -22.0388  -12.3448 C   0  0  0  0  0  0  0  0  0  0  0  0
   21.9763  -22.2119  -12.9991 C   0  0  0  0  0  0  0  0  0  0  0  0
   20.8397  -23.4712  -10.3959 C   0  0  0  0  0  0  0  0  0  0  0  0
   19.4743  -22.8503  -10.3754 C   0  0  0  0  0  0  0  0  0  0  0  0
   23.3270  -19.0566  -20.9658 O   0  0  0  0  0  0  0  0  0  0  0  0
   24.1560  -20.3064  -20.9360 C   0  0  0  0  0  0  0  0  0  0  0  0
   25.3122  -16.8318  -20.6346 H   0  0  0  0  0  0  0  0  0  0  0  0
   24.1945  -16.1694  -18.3847 H   0  0  0  0  0  0  0  0  0  0  0  0
   21.2883  -17.4633  -19.4476 H   0  0  0  0  0  0  0  0  0  0  0  0
   23.1304  -19.3250  -17.9843 H   0  0  0  0  0  0  0  0  0  0  0  0
   22.1967  -19.5158  -17.0748 H   0  0  0  0  0  0  0  0  0  0  0  0
   20.5159  -17.6613  -18.6359 H   0  0  0  0  0  0  0  0  0  0  0  0
   20.4720  -16.7267  -19.9677 H   0  0  0  0  0  0  0  0  0  0  0  0
   18.6121  -16.5518  -18.9626 H   0  0  0  0  0  0  0  0  0  0  0  0
   21.1531  -18.0697  -18.4736 H   0  0  0  0  0  0  0  0  0  0  0  0
   22.4058  -20.4947  -15.7903 H   0  0  0  0  0  0  0  0  0  0  0  0
   22.0960  -19.4410  -17.1149 H   0  0  0  0  0  0  0  0  0  0  0  0
   21.8953  -20.9637  -14.7618 H   0  0  0  0  0  0  0  0  0  0  0  0
   22.1810  -21.8438  -13.6738 H   0  0  0  0  0  0  0  0  0  0  0  0
   20.0864  -22.2269  -11.6976 H   0  0  0  0  0  0  0  0  0  0  0  0
   18.6468  -21.6120  -11.6182 H   0  0  0  0  0  0  0  0  0  0  0  0
   18.3253  -17.9158  -16.7827 H   0  0  0  0  0  0  0  0  0  0  0  0
   17.4766  -18.4747  -15.3942 H   0  0  0  0  0  0  0  0  0  0  0  0
   17.6379  -21.1359  -11.6284 H   0  0  0  0  0  0  0  0  0  0  0  0
   15.5582  -21.5437   -9.6264 H   0  0  0  0  0  0  0  0  0  0  0  0
   16.2880  -20.2155  -12.0545 H   0  0  0  0  0  0  0  0  0  0  0  0
   15.2583  -20.9165  -10.3374 H   0  0  0  0  0  0  0  0  0  0  0  0
   17.6654  -20.9107  -11.9743 H   0  0  0  0  0  0  0  0  0  0  0  0
   13.9370  -22.3551   -7.3472 H   0  0  0  0  0  0  0  0  0  0  0  0
   15.4611  -23.4786   -6.7420 H   0  0  0  0  0  0  0  0  0  0  0  0
   14.8029  -21.6340   -8.9849 H   0  0  0  0  0  0  0  0  0  0  0  0
   16.4769  -24.7935   -5.5163 H   0  0  0  0  0  0  0  0  0  0  0  0
   20.3690  -25.4664   -7.1718 H   0  0  0  0  0  0  0  0  0  0  0  0
   18.6492  -25.7621   -5.5769 H   0  0  0  0  0  0  0  0  0  0  0  0
   20.1301  -25.0099   -7.6748 H   0  0  0  0  0  0  0  0  0  0  0  0
   16.3011  -23.7436   -6.9262 H   0  0  0  0  0  0  0  0  0  0  0  0
   21.0641  -24.5504   -8.9763 H   0  0  0  0  0  0  0  0  0  0  0  0
   18.9696  -23.8672   -8.2142 H   0  0  0  0  0  0  0  0  0  0  0  0
   21.0207  -25.8558   -7.3749 H   0  0  0  0  0  0  0  0  0  0  0  0
   18.4750  -24.1536   -7.0012 H   0  0  0  0  0  0  0  0  0  0  0  0
   20.3800  -26.4265   -6.5872 H   0  0  0  0  0  0  0  0  0  0  0  0
   19.4471  -26.9828   -4.9785 H   0  0  0  0  0  0  0  0  0  0  0  0
   18.1718  -27.0981   -3.6584 H   0  0  0  0  0  0  0  0  0  0  0  0
   16.4086  -25.6253   -3.6012 H   0  0  0  0  0  0  0  0  0  0  0  0
   16.2483  -24.1857   -5.0104 H   0  0  0  0  0  0  0  0  0  0  0  0
   17.6777  -23.9266   -6.6307 H   0  0  0  0  0  0  0  0  0  0  0  0
   23.0166  -25.2046   -9.3458 H   0  0  0  0  0  0  0  0  0  0  0  0
   23.9626  -24.6010  -10.8652 H   0  0  0  0  0  0  0  0  0  0  0  0
   24.1987  -22.7822  -13.6734 H   0  0  0  0  0  0  0  0  0  0  0  0
   24.7622  -24.0280  -12.2306 H   0  0  0  0  0  0  0  0  0  0  0  0
   24.5869  -24.1503  -11.9339 H   0  0  0  0  0  0  0  0  0  0  0  0
   22.6902  -22.8267  -12.5873 H   0  0  0  0  0  0  0  0  0  0  0  0
   23.3149  -22.3850  -13.6534 H   0  0  0  0  0  0  0  0  0  0  0  0
   21.5648  -21.2687  -14.0905 H   0  0  0  0  0  0  0  0  0  0  0  0
   22.3878  -23.1551  -11.9078 H   0  0  0  0  0  0  0  0  0  0  0  0
   24.9850  -21.5561  -20.9060 H   0  0  0  0  0  0  0  0  0  0  0  0
   24.5611  -20.0038  -19.5237 H   0  0  0  0  0  0  0  0  0  0  0  0
   23.7509  -20.6088  -22.3481 H   0  0  0  0  0  0  0  0  0  0  0  0
  1  2  2  3
  2  3  1  0
  3  4  1  0
  4  5  1  0
  5  6  1  0
  6  7  1  0
  5  8  1  0
  8  9  1  0
  9 10  1  0
 10 11  1  0
 11 12  1  0
 12 13  1  0
 13 14  1  0
 14 15  1  0
 15 16  1  0
 12 17  1  0
 17 18  1  0
 18 19  1  0
 19 20  1  0
 20 21  1  0
 20 22  1  0
 22 23  1  0
 22 24  1  0
 24 25  1  0
 25 26  1  0
 26 27  1  0
 26 28  1  0
 28 29  1  0
 29 30  1  0
 30 31  1  0
 31 32  1  0
 32 33  1  0
 33 34  1  0
 29 35  1  0
 35 36  1  0
 36 37  1  0
 36 38  1  0
 38 39  1  0
 39 40  1  0
 38 41  1  0
 41 42  1  0
  2 43  1  0
 43 44  1  0
 16  5  1  0
 39 18  1  0
 15  9  1  0
 42 18  1  0
 39 10  1  0
 15 12  1  0
 42 19  1  0
 27 22  1  0
 42 28  1  0
 27 24  1  0
 41 29  1  0
 34 32  1  0
 41 35  1  0
  1 45  1  0
  1 46  1  0
  3 47  1  0
  3 48  1  0
  4 49  1  0
  4 50  1  0
  7 51  1  0
  7 52  1  0
  7 53  1  0
  8 54  1  0
  8 55  1  0
  9 56  1  0
 10 57  1  0
 11 58  1  0
 11 59  1  0
 16 60  1  0
 16 61  1  0
 19 62  1  0
 20 63  1  0
 21 64  1  0
 21 65  1  0
 21 66  1  0
 23 67  1  0
 23 68  1  0
 23 69  1  0
 24 70  1  0
 25 71  1  0
 25 72  1  0
 26 73  1  0
 27 74  1  0
 28 75  1  0
 30 76  1  0
 30 77  1  0
 31 78  1  0
 31 79  1  0
 32 80  1  0
 33 81  1  0
 33 82  1  0
 34 83  1  0
 34 84  1  0
 35 85  1  0
 36 86  1  0
 37 87  1  0
 37 88  1  0
 37 89  1  0
 38 90  1  0
 40 91  1  0
 40 92  1  0
 40 93  1  0
 44 94  1  0
 44 95  1  0
 44 96  1  0
M  END
