
     RDKit          2D

107113  0  0  0  0  0  0  0  0999 V2000
   19.9919  -15.2582   -1.0248 C   0  0  0  0  0  0  0  0  0  0  0  0
   20.4928  -14.7453   -2.3424 C   0  0  0  0  0  0  0  0  0  0  0  0
   20.2325  -15.5236   -3.5980 C   0  0  0  0  0  0  0  0  0  0  0  0
   19.4990  -16.5622   -2.8023 C   0  0  0  0  0  0  0  0  0  0  0  0
   19.9723  -16.3018   -4.8536 C   0  0  0  0  0  0  0  0  0  0  0  0
   19.7120  -17.0800   -6.1093 C   0  0  0  0  0  0  0  0  0  0  0  0
   20.4401  -16.0383   -6.9059 C   0  0  0  0  0  0  0  0  0  0  0  0
   21.1681  -14.9965   -7.7025 C   0  0  0  0  0  0  0  0  0  0  0  0
   19.4517  -17.8583   -7.3649 C   0  0  0  0  0  0  0  0  0  0  0  0
   19.1915  -18.6365   -8.6205 C   0  0  0  0  0  0  0  0  0  0  0  0
   18.5737  -19.8590   -9.2319 C   0  0  0  0  0  0  0  0  0  0  0  0
   18.3998  -20.5111  -10.5714 C   0  0  0  0  0  0  0  0  0  0  0  0
   18.7511  -20.2876  -12.0125 C   0  0  0  0  0  0  0  0  0  0  0  0
   19.4634  -19.2932  -12.8807 C   0  0  0  0  0  0  0  0  0  0  0  0
   20.2032  -17.9930  -12.7699 C   0  0  0  0  0  0  0  0  0  0  0  0
   20.6245  -16.9956  -11.7318 C   0  0  0  0  0  0  0  0  0  0  0  0
   20.8635  -16.2480  -10.4535 C   0  0  0  0  0  0  0  0  0  0  0  0
   20.1276  -17.3117   -9.6938 C   0  0  0  0  0  0  0  0  0  0  0  0
   19.8886  -18.0593  -10.9721 C   0  0  0  0  0  0  0  0  0  0  0  0
   19.1527  -19.1230  -10.2123 O   0  0  0  0  0  0  0  0  0  0  0  0
   19.6497  -18.8069  -12.2503 C   0  0  0  0  0  0  0  0  0  0  0  0
   19.4107  -19.5546  -13.5286 C   0  0  0  0  0  0  0  0  0  0  0  0
   19.1717  -20.3021  -14.8068 C   0  0  0  0  0  0  0  0  0  0  0  0
   19.1307  -20.1728  -14.0493 C   0  0  0  0  0  0  0  0  0  0  0  0
   18.6407  -20.8527  -13.4359 C   0  0  0  0  0  0  0  0  0  0  0  0
   17.9502  -21.7888  -12.4879 O   0  0  0  0  0  0  0  0  0  0  0  0
   17.4443  -22.4842  -11.8295 C   0  0  0  0  0  0  0  0  0  0  0  0
   17.7030  -22.4292  -13.3060 C   0  0  0  0  0  0  0  0  0  0  0  0
   17.1708  -23.5616  -14.1333 C   0  0  0  0  0  0  0  0  0  0  0  0
   17.5404  -23.3040  -15.5640 C   0  0  0  0  0  0  0  0  0  0  0  0
   16.8258  -24.5984  -15.8172 C   0  0  0  0  0  0  0  0  0  0  0  0
   17.7606  -23.3171  -17.0477 C   0  0  0  0  0  0  0  0  0  0  0  0
   17.9809  -23.3301  -18.5314 C   0  0  0  0  0  0  0  0  0  0  0  0
   18.3011  -22.0125  -15.6210 C   0  0  0  0  0  0  0  0  0  0  0  0
   18.4016  -21.4718  -14.2255 C   0  0  0  0  0  0  0  0  0  0  0  0
   17.6356  -21.7983  -10.4749 C   0  0  0  0  0  0  0  0  0  0  0  0
   17.9240  -21.4588  -11.0656 C   0  0  0  0  0  0  0  0  0  0  0  0
   17.2375  -23.1726  -13.0930 O   0  0  0  0  0  0  0  0  0  0  0  0
   16.7673  -23.4716  -11.1645 C   0  0  0  0  0  0  0  0  0  0  0  0
   16.0200  -24.5730  -10.4727 C   0  0  0  0  0  0  0  0  0  0  0  0
   15.3861  -25.3716   -9.3725 C   0  0  0  0  0  0  0  0  0  0  0  0
   16.0873  -24.0837   -9.0564 Si  0  0  0  0  0  4  0  0  0  0  0  0
   18.3794  -20.8420  -11.6934 C   0  0  0  0  0  0  0  0  0  0  0  0
   18.4237  -21.0028  -12.5917 F   0  0  0  0  0  0  0  0  0  0  0  0
   20.2522  -14.4799    0.2309 H   0  0  0  0  0  0  0  0  0  0  0  0
   19.3070  -16.4200   -0.9689 H   0  0  0  0  0  0  0  0  0  0  0  0
   21.2539  -13.4543   -2.4044 H   0  0  0  0  0  0  0  0  0  0  0  0
   20.9661  -14.4849   -4.3938 H   0  0  0  0  0  0  0  0  0  0  0  0
   19.5653  -16.1080   -1.5327 H   0  0  0  0  0  0  0  0  0  0  0  0
   19.1526  -17.4620   -3.9513 H   0  0  0  0  0  0  0  0  0  0  0  0
   18.7654  -17.6007   -2.0064 H   0  0  0  0  0  0  0  0  0  0  0  0
   19.2184  -17.4309   -4.2159 H   0  0  0  0  0  0  0  0  0  0  0  0
   20.7262  -15.1727   -5.4913 H   0  0  0  0  0  0  0  0  0  0  0  0
   18.9840  -18.1219   -5.3126 H   0  0  0  0  0  0  0  0  0  0  0  0
   20.6874  -15.0836   -5.7756 H   0  0  0  0  0  0  0  0  0  0  0  0
   20.2803  -16.8721   -8.1425 H   0  0  0  0  0  0  0  0  0  0  0  0
   21.3296  -14.1634   -6.4655 H   0  0  0  0  0  0  0  0  0  0  0  0
   21.0967  -15.6962   -9.0274 H   0  0  0  0  0  0  0  0  0  0  0  0
   21.8962  -13.9546   -8.4991 H   0  0  0  0  0  0  0  0  0  0  0  0
   18.7229  -18.8996   -6.5684 H   0  0  0  0  0  0  0  0  0  0  0  0
   20.0960  -17.0362   -8.4415 H   0  0  0  0  0  0  0  0  0  0  0  0
   18.5682  -19.4110   -7.4973 H   0  0  0  0  0  0  0  0  0  0  0  0
   17.9247  -20.6929   -8.1672 H   0  0  0  0  0  0  0  0  0  0  0  0
   18.7107  -20.7346  -13.4438 H   0  0  0  0  0  0  0  0  0  0  0  0
   19.7905  -19.1144  -14.3336 H   0  0  0  0  0  0  0  0  0  0  0  0
   20.9136  -17.0035  -13.6450 H   0  0  0  0  0  0  0  0  0  0  0  0
   20.3021  -18.2136  -14.2502 H   0  0  0  0  0  0  0  0  0  0  0  0
   21.0572  -16.6177  -13.1174 H   0  0  0  0  0  0  0  0  0  0  0  0
   21.1903  -15.3763   -9.2773 H   0  0  0  0  0  0  0  0  0  0  0  0
   21.5993  -15.1843  -11.2132 H   0  0  0  0  0  0  0  0  0  0  0  0
   19.6198  -17.8385   -8.3843 H   0  0  0  0  0  0  0  0  0  0  0  0
   18.8154  -19.3252   -8.7649 H   0  0  0  0  0  0  0  0  0  0  0  0
   18.9944  -19.6586  -11.2038 H   0  0  0  0  0  0  0  0  0  0  0  0
   20.3049  -17.9552  -13.2969 H   0  0  0  0  0  0  0  0  0  0  0  0
   20.1099  -18.5887  -14.4388 H   0  0  0  0  0  0  0  0  0  0  0  0
   18.6533  -20.7026  -12.9301 H   0  0  0  0  0  0  0  0  0  0  0  0
   19.8710  -19.3364  -15.7170 H   0  0  0  0  0  0  0  0  0  0  0  0
   18.4335  -21.6033  -14.9177 H   0  0  0  0  0  0  0  0  0  0  0  0
   19.2117  -20.6184  -16.2725 H   0  0  0  0  0  0  0  0  0  0  0  0
   19.7150  -19.4852  -15.2476 H   0  0  0  0  0  0  0  0  0  0  0  0
   17.6160  -23.0028  -14.9143 H   0  0  0  0  0  0  0  0  0  0  0  0
   18.6754  -21.3562  -15.5706 H   0  0  0  0  0  0  0  0  0  0  0  0
   16.6849  -23.7771  -11.7856 H   0  0  0  0  0  0  0  0  0  0  0  0
   16.9298  -23.6846  -13.0301 H   0  0  0  0  0  0  0  0  0  0  0  0
   16.4906  -24.4717  -13.1540 H   0  0  0  0  0  0  0  0  0  0  0  0
   16.4847  -24.8403  -14.5132 H   0  0  0  0  0  0  0  0  0  0  0  0
   17.0365  -24.6362  -17.3020 H   0  0  0  0  0  0  0  0  0  0  0  0
   16.4409  -24.8761  -14.3944 H   0  0  0  0  0  0  0  0  0  0  0  0
   16.1112  -25.8926  -16.0705 H   0  0  0  0  0  0  0  0  0  0  0  0
   17.0565  -24.6120  -17.3257 H   0  0  0  0  0  0  0  0  0  0  0  0
   18.5185  -22.0253  -17.1314 H   0  0  0  0  0  0  0  0  0  0  0  0
   18.7143  -22.0253  -18.4341 H   0  0  0  0  0  0  0  0  0  0  0  0
   17.2474  -24.6349  -18.6288 H   0  0  0  0  0  0  0  0  0  0  0  0
   18.2011  -23.3432  -20.0151 H   0  0  0  0  0  0  0  0  0  0  0  0
   18.4558  -22.1387  -17.1077 H   0  0  0  0  0  0  0  0  0  0  0  0
   19.0160  -21.0104  -16.4782 H   0  0  0  0  0  0  0  0  0  0  0  0
   18.9394  -20.8831  -15.4960 H   0  0  0  0  0  0  0  0  0  0  0  0
   17.2370  -22.1105   -9.0629 H   0  0  0  0  0  0  0  0  0  0  0  0
   16.4734  -24.4597  -12.9965 H   0  0  0  0  0  0  0  0  0  0  0  0
   16.3126  -24.5115  -12.1454 H   0  0  0  0  0  0  0  0  0  0  0  0
   16.9675  -22.7807   -9.8482 H   0  0  0  0  0  0  0  0  0  0  0  0
   15.6931  -25.4446  -11.6489 H   0  0  0  0  0  0  0  0  0  0  0  0
   14.8391  -26.5206  -10.1666 H   0  0  0  0  0  0  0  0  0  0  0  0
   14.9422  -25.7711   -7.9966 H   0  0  0  0  0  0  0  0  0  0  0  0
   15.8869  -24.0361   -7.5706 H   0  0  0  0  0  0  0  0  0  0  0  0
   16.8188  -22.7843   -8.8937 H   0  0  0  0  0  0  0  0  0  0  0  0
   18.1369  -21.9258  -14.2230 H   0  0  0  0  0  0  0  0  0  0  0  0
  1  2  2  0
  2  3  1  0
  3  4  1  0
  3  5  1  0
  5  6  1  0
  6  7  1  0
  7  8  1  0
  6  9  1  0
  9 10  1  0
 10 11  1  0
 11 12  2  0
 12 13  1  0
 13 14  1  0
 14 15  1  0
 15 16  1  0
 16 17  1  0
 17 18  1  0
 18 19  1  0
 19 20  1  0
 19 21  1  0
 21 22  1  0
 22 23  1  0
 14 24  1  0
 24 25  1  0
 25 26  1  0
 26 27  1  0
 27 28  1  0
 28 29  1  0
 29 30  1  0
 30 31  1  0
 30 32  1  0
 32 33  1  0
 30 34  1  0
 34 35  1  0
 27 36  1  0
 36 37  1  0
 37 38  1  0
 37 39  1  0
 39 40  1  0
 40 41  1  0
 41 42  1  0
 37 43  1  0
 43 44  1  0
 18 10  1  0
 35 24  1  0
 42 40  1  0
 36 12  1  0
 43 13  1  0
 19 16  1  0
 35 28  1  0
  1 45  1  0
  1 46  1  0
  2 47  1  0
  3 48  1  0
  4 49  1  0
  4 50  1  0
  4 51  1  0
  5 52  1  0
  5 53  1  0
  6 54  1  0
  7 55  1  0
  7 56  1  0
  8 57  1  0
  8 58  1  0
  8 59  1  0
  9 60  1  0
  9 61  1  0
 10 62  1  0
 11 63  1  0
 13 64  1  0
 14 65  1  0
 15 66  1  0
 15 67  1  0
 16 68  1  0
 17 69  1  0
 17 70  1  0
 18 71  1  0
 20 72  1  0
 21 73  1  0
 21 74  1  0
 22 75  1  0
 22 76  1  0
 23 77  1  0
 23 78  1  0
 23 79  1  0
 24 80  1  0
 25 81  1  0
 25 82  1  0
 27 83  1  0
 28 84  1  0
 29 85  1  0
 29 86  1  0
 31 87  1  0
 31 88  1  0
 31 89  1  0
 32 90  1  0
 32 91  1  0
 33 92  1  0
 33 93  1  0
 33 94  1  0
 34 95  1  0
 34 96  1  0
 35 97  1  0
 36 98  1  0
 38 99  1  0
 39100  1  0
 39101  1  0
 40102  1  0
 41103  1  0
 41104  1  0
 42105  1  0
 42106  1  0
 43107  1  0
M  END
