
     RDKit          2D

 74 90  0  0  0  0  0  0  0  0999 V2000
    1.0498   22.3722    3.9405 C   0  0  0  0  0  0  0  0  0  0  0  0
   -0.8924   25.2657    4.8080 C   0  0  0  0  0  0  0  0  0  0  0  0
   -0.8114   26.2946    4.7281 C   0  0  0  0  0  0  0  0  0  0  0  0
   -0.1185   27.5644    4.3310 C   0  0  0  0  0  0  0  0  0  0  0  0
    0.9962   26.7112    3.8023 O   0  0  0  0  0  0  0  0  0  0  0  0
    0.9258   24.3854    3.9263 C   0  0  0  0  0  0  0  0  0  0  0  0
   -0.0745   23.4069    4.4670 C   0  0  0  0  0  0  0  0  0  0  0  0
   -0.3467   24.8799    4.5480 C   0  0  0  0  0  0  0  0  0  0  0  0
    2.0477   25.1835    3.3313 C   0  0  0  0  0  0  0  0  0  0  0  0
    3.2663   25.7837    2.6950 C   0  0  0  0  0  0  0  0  0  0  0  0
    2.1744   26.6733    3.2108 C   0  0  0  0  0  0  0  0  0  0  0  0
    1.2103   27.7329    3.6557 C   0  0  0  0  0  0  0  0  0  0  0  0
    1.0700   29.2262    3.6695 N   0  0  0  0  0  0  0  0  0  0  0  0
    0.5563   27.7376    3.9847 O   0  0  0  0  0  0  0  0  0  0  0  0
   -0.1915   26.5298    4.4071 C   0  0  0  0  0  0  0  0  0  0  0  0
   -1.5311   26.5957    5.0789 C   0  0  0  0  0  0  0  0  0  0  0  0
   -2.6732   27.4015    5.6231 C   0  0  0  0  0  0  0  0  0  0  0  0
   -3.3119   28.7315    5.8939 C   0  0  0  0  0  0  0  0  0  0  0  0
   -4.4899   28.0396    6.5132 N   0  0  0  0  0  0  0  0  0  0  0  0
   -3.8513   26.7097    6.2424 S   0  0  0  0  0  4  0  0  0  0  0  0
   -3.2759   30.2291    5.8188 C   0  0  0  0  0  0  0  0  0  0  0  0
   -4.1095   31.4188    6.1931 Br  0  0  0  0  0  0  0  0  0  0  0  0
   -2.5750   31.4932    5.4179 N   0  0  0  0  0  0  0  0  0  0  0  0
   -1.3970   32.1851    4.7986 C   0  0  0  0  0  0  0  0  0  0  0  0
   -0.4329   31.1256    4.3537 N   0  0  0  0  0  0  0  0  0  0  0  0
    0.5312   30.0660    3.9087 N   0  0  0  0  0  0  0  0  0  0  0  0
    1.8192   30.4547    3.2456 C   0  0  0  0  0  0  0  0  0  0  0  0
    2.1433   31.9029    3.0274 N   0  0  0  0  0  0  0  0  0  0  0  0
    1.1792   32.9624    3.4723 C   0  0  0  0  0  0  0  0  0  0  0  0
    0.8097   34.4103    3.6032 N   0  0  0  0  0  0  0  0  0  0  0  0
    0.4402   35.8582    3.7341 O   0  0  0  0  0  0  0  0  0  0  0  0
   -0.8479   35.4695    4.3973 C   0  0  0  0  0  0  0  0  0  0  0  0
   -0.4784   34.0216    4.2664 C   0  0  0  0  0  0  0  0  0  0  0  0
   -0.1088   32.5738    4.1354 C   0  0  0  0  0  0  0  0  0  0  0  0
    3.1073   30.8434    2.5825 C   0  0  0  0  0  0  0  0  0  0  0  0
    4.1801   31.7478    2.0081 N   0  0  0  0  0  2  0  0  0  0  0  0
    5.4804   31.3605    1.3683 C   0  0  0  0  0  0  0  0  0  0  0  0
    5.8499   29.9126    1.2375 N   0  0  0  0  0  2  0  0  0  0  0  0
    4.9192   28.8521    1.7463 C   0  0  0  0  0  0  0  0  0  0  0  0
    4.5951   27.4039    1.9645 C   0  0  0  0  0  0  0  0  0  0  0  0
    3.5111   26.5434    2.5429 C   0  0  0  0  0  0  0  0  0  0  0  0
    3.8806   25.0955    2.4120 O   0  0  0  0  0  0  0  0  0  0  0  0
    4.3316   30.2104    1.9903 N   0  0  0  0  0  0  0  0  0  0  0  0
    1.8611   21.1637    3.5782 H   0  0  0  0  0  0  0  0  0  0  0  0
   -0.0252   21.4846    4.4942 H   0  0  0  0  0  0  0  0  0  0  0  0
    2.1248   23.2598    3.3868 H   0  0  0  0  0  0  0  0  0  0  0  0
   -2.1365   26.0963    5.4026 H   0  0  0  0  0  0  0  0  0  0  0  0
   -0.8513   28.8333    4.6515 H   0  0  0  0  0  0  0  0  0  0  0  0
    0.3333   21.9714    4.3164 H   0  0  0  0  0  0  0  0  0  0  0  0
   -1.3194   22.8760    5.1138 H   0  0  0  0  0  0  0  0  0  0  0  0
   -1.5801   24.3175    5.1902 H   0  0  0  0  0  0  0  0  0  0  0  0
    3.7372   24.3714    2.5117 H   0  0  0  0  0  0  0  0  0  0  0  0
    4.4201   26.5241    2.0861 H   0  0  0  0  0  0  0  0  0  0  0  0
    0.0650   28.5330    4.2017 H   0  0  0  0  0  0  0  0  0  0  0  0
   -2.5804   25.6834    5.6417 H   0  0  0  0  0  0  0  0  0  0  0  0
   -1.5905   25.0993    5.1657 H   0  0  0  0  0  0  0  0  0  0  0  0
   -4.0107   27.5194    6.2918 H   0  0  0  0  0  0  0  0  0  0  0  0
   -4.5309   29.3772    6.4829 H   0  0  0  0  0  0  0  0  0  0  0  0
   -5.7745   28.4909    7.1426 H   0  0  0  0  0  0  0  0  0  0  0  0
   -4.5892   29.9565    6.4903 H   0  0  0  0  0  0  0  0  0  0  0  0
   -3.6085   32.4672    5.9010 H   0  0  0  0  0  0  0  0  0  0  0  0
   -2.6480   32.7461    5.4070 H   0  0  0  0  0  0  0  0  0  0  0  0
    0.0511   28.6758    4.2033 H   0  0  0  0  0  0  0  0  0  0  0  0
    2.3278   33.7127    2.8657 H   0  0  0  0  0  0  0  0  0  0  0  0
   -2.1360   35.0808    5.0604 H   0  0  0  0  0  0  0  0  0  0  0  0
   -1.2174   36.9174    4.5281 H   0  0  0  0  0  0  0  0  0  0  0  0
   -1.7665   33.6330    4.9295 H   0  0  0  0  0  0  0  0  0  0  0  0
    6.8131   31.4919    0.6925 H   0  0  0  0  0  0  0  0  0  0  0  0
    5.5738   32.8540    1.2645 H   0  0  0  0  0  0  0  0  0  0  0  0
    6.2518   28.9834    1.0705 H   0  0  0  0  0  0  0  0  0  0  0  0
    5.9337   27.4481    1.2891 H   0  0  0  0  0  0  0  0  0  0  0  0
    5.0389   25.9810    1.7953 H   0  0  0  0  0  0  0  0  0  0  0  0
    2.9499   24.0350    2.9208 H   0  0  0  0  0  0  0  0  0  0  0  0
    5.4680   30.9831    1.3889 H   0  0  0  0  0  0  0  0  0  0  0  0
  1  2  1  0
  2  3  1  0
  3  4  1  0
  4  5  1  0
  5  6  1  0
  6  7  1  0
  7  8  1  0
  6  9  1  0
  9 10  1  0
 10 11  1  0
 11 12  1  0
 12 13  1  0
 13 14  1  0
 14 15  1  0
 15 16  1  0
 16 17  1  0
 17 18  1  0
 18 19  1  0
 19 20  1  0
 18 21  1  0
 21 22  1  0
 21 23  1  0
 23 24  1  0
 24 25  1  0
 25 26  1  0
 26 27  1  0
 27 28  1  0
 28 29  1  0
 29 30  1  0
 30 31  1  0
 31 32  1  0
 32 33  1  0
 33 34  1  0
 28 35  1  0
 35 36  1  0
 36 37  1  0
 37 38  1  0
 38 39  1  0
 39 40  1  0
 40 41  1  0
 41 42  1  0
 39 43  1  0
 15  2  1  0
 20 17  1  0
 34 24  1  0
 43 35  1  0
 20  2  1  0
 34 25  1  0
  8  3  1  0
 11  9  1  0
 27 13  1  0
 34 29  1  0
 12  4  1  0
 20 15  1  0
 35 27  1  0
  8  6  1  0
 41  9  1  0
 41 11  1  0
 33 30  1  0
  1 44  1  0
  1 45  1  0
  1 46  1  0
  3 47  1  0
  4 48  1  0
  7 49  1  0
  7 50  1  0
  8 51  1  0
 10 52  1  0
 10 53  1  0
 12 54  1  0
 16 55  1  0
 16 56  1  0
 17 57  1  0
 18 58  1  0
 19 59  1  0
 21 60  1  0
 23 61  1  0
 24 62  1  0
 26 63  1  0
 29 64  1  0
 32 65  1  0
 32 66  1  0
 33 67  1  0
 37 68  1  0
 37 69  1  0
 39 70  1  0
 40 71  1  0
 40 72  1  0
 42 73  1  0
 43 74  1  0
M  RAD  2  36   2  38   2
M  END
