
     RDKit          2D

 50 54  0  0  0  0  0  0  0  0999 V2000
    2.3492   27.0724    9.7473 C   0  0  0  0  0  0  0  0  0  0  0  0
    2.3958   26.5473    8.3430 C   0  0  0  0  0  0  0  0  0  0  0  0
    2.4424   26.0221    6.9387 O   0  0  0  0  0  0  0  0  0  0  0  0
    2.9264   24.6269    6.6755 C   0  0  0  0  0  0  0  0  0  0  0  0
    3.0730   24.4301    7.4340 F   0  0  0  0  0  0  0  0  0  0  0  0
    3.4104   23.2317    6.4123 C   0  0  0  0  0  0  0  0  0  0  0  0
    3.8943   21.8366    6.1491 C   0  0  0  0  0  0  0  0  0  0  0  0
    2.7958   23.2766    5.0448 C   0  0  0  0  0  0  0  0  0  0  0  0
    2.1813   23.3214    3.6771 C   0  0  0  0  0  0  0  0  0  0  0  0
    1.5667   23.3661    2.3095 C   0  0  0  0  0  0  0  0  0  0  0  0
    1.0854   24.7625    2.5716 C   0  0  0  0  0  0  0  0  0  0  0  0
    1.6999   24.7176    3.9392 C   0  0  0  0  0  0  0  0  0  0  0  0
    2.2512   24.8434    5.3285 Cl  0  0  0  0  0  0  0  0  0  0  0  0
    1.2185   26.1139    4.2012 C   0  0  0  0  0  0  0  0  0  0  0  0
    0.7372   27.5102    4.4634 C   0  0  0  0  0  0  0  0  0  0  0  0
    0.2558   28.9065    4.7254 P   0  0  0  0  0  0  0  0  0  0  0  0
    0.4613   26.1227    2.4708 C   0  0  0  0  0  0  0  0  0  0  0  0
    0.7529   26.7821    3.7862 N   0  0  0  0  0  0  0  0  0  0  0  0
   -0.3136   27.1418    1.6891 C   0  0  0  0  0  0  0  0  0  0  0  0
   -0.4232   28.3286    2.5998 F   0  0  0  0  0  0  0  0  0  0  0  0
   -1.0318   27.5465    0.4359 N   0  0  0  0  0  0  0  0  0  0  0  0
   -1.1260   26.5908   -0.7165 C   0  0  0  0  0  0  0  0  0  0  0  0
   -0.4078   26.1861    0.5367 C   0  0  0  0  0  0  0  0  0  0  0  0
    0.3672   25.1671    1.3184 C   0  0  0  0  0  0  0  0  0  0  0  0
    0.4768   23.9803    0.4077 Cl  0  0  0  0  0  0  0  0  0  0  0  0
    2.3026   27.5975   11.1516 H   0  0  0  0  0  0  0  0  0  0  0  0
    3.6493   27.7863    9.5235 H   0  0  0  0  0  0  0  0  0  0  0  0
    1.0491   26.3585    9.9711 H   0  0  0  0  0  0  0  0  0  0  0  0
    1.8621   27.8544    7.8365 H   0  0  0  0  0  0  0  0  0  0  0  0
    2.9295   25.2401    8.8496 H   0  0  0  0  0  0  0  0  0  0  0  0
    3.0103   24.6109    7.4681 H   0  0  0  0  0  0  0  0  0  0  0  0
    4.0249   23.1869    7.7799 H   0  0  0  0  0  0  0  0  0  0  0  0
    4.3783   20.4414    5.8859 H   0  0  0  0  0  0  0  0  0  0  0  0
    4.3937   21.7435    7.5605 H   0  0  0  0  0  0  0  0  0  0  0  0
    3.4578   21.7588    4.7162 H   0  0  0  0  0  0  0  0  0  0  0  0
    2.3951   24.6579    5.4706 H   0  0  0  0  0  0  0  0  0  0  0  0
    3.1966   21.8952    4.6188 H   0  0  0  0  0  0  0  0  0  0  0  0
    2.6627   21.9251    3.4150 H   0  0  0  0  0  0  0  0  0  0  0  0
    2.0481   21.9699    2.0475 H   0  0  0  0  0  0  0  0  0  0  0  0
    0.9522   23.4110    0.9419 H   0  0  0  0  0  0  0  0  0  0  0  0
    1.8874   25.8993    5.5267 H   0  0  0  0  0  0  0  0  0  0  0  0
    0.5056   26.4952    2.9378 H   0  0  0  0  0  0  0  0  0  0  0  0
    1.3511   27.4651    5.8312 H   0  0  0  0  0  0  0  0  0  0  0  0
    0.1233   27.5553    3.0955 H   0  0  0  0  0  0  0  0  0  0  0  0
    0.5476   29.5659    6.0407 H   0  0  0  0  0  0  0  0  0  0  0  0
   -0.5174   29.6433    3.6722 H   0  0  0  0  0  0  0  0  0  0  0  0
    0.2715   28.1783    4.0483 H   0  0  0  0  0  0  0  0  0  0  0  0
    1.4351   26.5195    5.0960 H   0  0  0  0  0  0  0  0  0  0  0  0
   -1.9055   27.4284   -1.6864 H   0  0  0  0  0  0  0  0  0  0  0  0
   -0.9494   25.3443   -1.5319 H   0  0  0  0  0  0  0  0  0  0  0  0
  1  2  1  0
  2  3  1  0
  3  4  1  0
  4  5  1  0
  4  6  1  0
  6  7  1  0
  6  8  1  0
  8  9  1  0
  9 10  1  0
 10 11  1  0
 11 12  1  0
 12 13  1  0
 12 14  1  0
 14 15  1  0
 15 16  1  0
 11 17  1  0
 17 18  1  0
 17 19  1  0
 19 20  1  0
 19 21  1  0
 21 22  1  0
 22 23  1  0
 23 24  1  0
 24 25  1  0
 12  9  1  0
 24 17  1  0
 24 11  1  0
 23 19  1  0
 23 21  1  0
  1 26  1  0
  1 27  1  0
  1 28  1  0
  2 29  1  0
  2 30  1  0
  4 31  1  0
  6 32  1  0
  7 33  1  0
  7 34  1  0
  7 35  1  0
  8 36  1  0
  8 37  1  0
  9 38  1  0
 10 39  1  0
 10 40  1  0
 14 41  1  0
 14 42  1  0
 15 43  1  0
 15 44  1  0
 16 45  1  0
 16 46  1  0
 18 47  1  0
 18 48  1  0
 22 49  1  0
 22 50  1  0
M  END
