
     RDKit          2D

 28 29  0  0  0  0  0  0  0  0999 V2000
   14.9260  -21.7744   -6.2363 C   0  0  0  0  0  0  0  0  0  0  0  0
   15.1431  -21.6395   -7.7144 C   0  0  0  0  0  0  0  0  0  0  0  0
   15.3603  -21.5046   -9.1924 C   0  0  0  0  0  0  0  0  0  0  0  0
   15.5774  -21.3697  -10.6704 O   0  0  0  0  0  0  0  0  0  0  0  0
   16.9602  -21.1495  -11.2083 C   0  0  0  0  0  0  0  0  0  0  0  0
   16.4127  -21.1211  -12.6045 C   0  0  0  0  0  0  0  0  0  0  0  0
   17.5078  -21.1778   -9.8121 O   0  0  0  0  0  0  0  0  0  0  0  0
   18.8907  -20.9575  -10.3500 C   0  0  0  0  0  0  0  0  0  0  0  0
   19.4382  -20.9858   -8.9538 O   0  0  0  0  0  0  0  0  0  0  0  0
   20.2735  -20.7372  -10.8879 O   0  0  0  0  0  0  0  0  0  0  0  0
   19.7259  -20.7089  -12.2840 C   0  0  0  0  0  0  0  0  0  0  0  0
   19.1783  -20.6806  -13.6803 C   0  0  0  0  0  0  0  0  0  0  0  0
   18.3431  -20.9292  -11.7462 N   0  0  0  0  0  0  0  0  0  0  0  0
   14.7088  -21.9092   -4.7582 H   0  0  0  0  0  0  0  0  0  0  0  0
   13.4546  -21.9508   -6.4685 H   0  0  0  0  0  0  0  0  0  0  0  0
   16.3974  -21.5979   -6.0040 H   0  0  0  0  0  0  0  0  0  0  0  0
   13.6718  -21.8168   -7.9466 H   0  0  0  0  0  0  0  0  0  0  0  0
   16.6144  -21.4622   -7.4820 H   0  0  0  0  0  0  0  0  0  0  0  0
   16.8318  -21.3289   -8.9602 H   0  0  0  0  0  0  0  0  0  0  0  0
   13.8888  -21.6804   -9.4246 H   0  0  0  0  0  0  0  0  0  0  0  0
   15.8650  -21.0928  -14.0007 H   0  0  0  0  0  0  0  0  0  0  0  0
   15.0298  -21.3415  -12.0666 H   0  0  0  0  0  0  0  0  0  0  0  0
   17.3569  -20.9799  -12.8431 H   0  0  0  0  0  0  0  0  0  0  0  0
   20.9096  -20.8093   -8.7216 H   0  0  0  0  0  0  0  0  0  0  0  0
   21.1087  -20.4886  -12.8220 H   0  0  0  0  0  0  0  0  0  0  0  0
   18.6306  -20.6522  -15.0764 H   0  0  0  0  0  0  0  0  0  0  0  0
   20.5727  -20.5886  -14.2252 H   0  0  0  0  0  0  0  0  0  0  0  0
   18.3140  -20.7427  -13.2136 H   0  0  0  0  0  0  0  0  0  0  0  0
  1  2  1  0
  2  3  1  0
  3  4  1  0
  4  5  1  0
  5  6  1  0
  5  7  1  0
  7  8  1  0
  8  9  1  0
  8 10  1  0
 10 11  1  0
 11 12  1  0
 11 13  1  0
 13  5  1  0
 13  8  1  0
  1 14  1  0
  1 15  1  0
  1 16  1  0
  2 17  1  0
  2 18  1  0
  3 19  1  0
  3 20  1  0
  6 21  1  0
  6 22  1  0
  6 23  1  0
  9 24  1  0
 11 25  1  0
 12 26  1  0
 12 27  1  0
 12 28  1  0
M  END
