
     RDKit          2D

104115  0  0  0  0  0  0  0  0999 V2000
   -7.0683   28.3759   11.2759 C   0  0  0  0  0  0  0  0  0  0  0  0
   -7.6743   27.0154   11.4541 C   0  0  0  0  0  0  0  0  0  0  0  0
   -6.6730   26.7940   10.3592 C   0  0  0  0  0  0  0  0  0  0  0  0
   -6.3561   25.5255    9.6242 C   0  0  0  0  0  0  0  0  0  0  0  0
   -5.4245   26.5182    8.9940 O   0  0  0  0  0  0  0  0  0  0  0  0
   -4.4931   26.0838    7.9014 P   0  0  0  0  0  0  0  0  0  0  0  0
   -3.5616   27.0764    7.2713 C   0  0  0  0  0  0  0  0  0  0  0  0
   -3.0240   26.0019    6.3734 C   0  0  0  0  0  0  0  0  0  0  0  0
   -2.0925   26.9944    5.7433 C   0  0  0  0  0  0  0  0  0  0  0  0
   -1.1610   27.9871    5.1132 C   0  0  0  0  0  0  0  0  0  0  0  0
   -0.2294   28.9797    4.4830 C   0  0  0  0  0  0  0  0  0  0  0  0
    0.4622   28.0937    3.4897 C   0  0  0  0  0  0  0  0  0  0  0  0
    1.3940   27.6593    2.3974 C   0  0  0  0  0  0  0  0  0  0  0  0
    2.3257   27.2248    1.3052 C   0  0  0  0  0  0  0  0  0  0  0  0
    1.6344   25.9245    1.5903 C   0  0  0  0  0  0  0  0  0  0  0  0
    2.0026   24.6938    0.8159 C   0  0  0  0  0  0  0  0  0  0  0  0
    2.3708   23.4630    0.0415 C   0  0  0  0  0  0  0  0  0  0  0  0
    3.0624   22.5771   -0.9518 C   0  0  0  0  0  0  0  0  0  0  0  0
    3.4306   21.3463   -1.7262 C   0  0  0  0  0  0  0  0  0  0  0  0
    3.2441   19.8849   -2.0087 C   0  0  0  0  0  0  0  0  0  0  0  0
    2.1847   19.8154   -0.9491 C   0  0  0  0  0  0  0  0  0  0  0  0
    2.3712   21.2768   -0.6666 C   0  0  0  0  0  0  0  0  0  0  0  0
    3.0620   24.7633   -0.2437 C   0  0  0  0  0  0  0  0  0  0  0  0
    4.1215   24.8329   -1.3033 C   0  0  0  0  0  0  0  0  0  0  0  0
    4.8127   26.1332   -1.5885 C   0  0  0  0  0  0  0  0  0  0  0  0
    3.7533   26.0637   -0.5289 C   0  0  0  0  0  0  0  0  0  0  0  0
    3.3852   27.2944    0.2455 N   0  0  0  0  0  0  0  0  0  0  0  0
    0.8299   29.5449    3.5839 C   0  0  0  0  0  0  0  0  0  0  0  0
    0.8296   30.9719    4.0461 C   0  0  0  0  0  0  0  0  0  0  0  0
    1.1973   32.4231    4.1403 C   0  0  0  0  0  0  0  0  0  0  0  0
    1.8890   31.5371    3.1470 C   0  0  0  0  0  0  0  0  0  0  0  0
   -2.6301   28.0690    6.6411 C   0  0  0  0  0  0  0  0  0  0  0  0
   -3.1678   29.1437    7.5391 C   0  0  0  0  0  0  0  0  0  0  0  0
   -3.7055   30.2182    8.4370 C   0  0  0  0  0  0  0  0  0  0  0  0
   -4.2432   31.2928    9.3348 C   0  0  0  0  0  0  0  0  0  0  0  0
   -3.3131   32.2858    8.7032 C   0  0  0  0  0  0  0  0  0  0  0  0
   -3.8508   33.3605    9.6011 C   0  0  0  0  0  0  0  0  0  0  0  0
   -4.7808   32.3674   10.2327 N   0  0  0  0  0  0  0  0  0  0  0  0
   -6.9620   24.1650    9.8023 C   0  0  0  0  0  0  0  0  0  0  0  0
   -8.0345   23.7369   10.7596 C   0  0  0  0  0  0  0  0  0  0  0  0
   -7.7175   22.4684   10.0245 N   0  0  0  0  0  0  0  0  0  0  0  0
   -8.5311   25.0912   11.7060 C   0  0  0  0  0  0  0  0  0  0  0  0
   -7.4743   25.6732   10.8147 C   0  0  0  0  0  0  0  0  0  0  0  0
   -8.7310   26.4334   12.3454 C   0  0  0  0  0  0  0  0  0  0  0  0
   -6.4623   29.7365   11.0977 H   0  0  0  0  0  0  0  0  0  0  0  0
   -7.9717   28.9180   12.3436 H   0  0  0  0  0  0  0  0  0  0  0  0
   -6.5526   28.1781   10.7011 H   0  0  0  0  0  0  0  0  0  0  0  0
   -6.5195   27.5706   10.4540 H   0  0  0  0  0  0  0  0  0  0  0  0
   -5.6518   27.5479    9.5600 H   0  0  0  0  0  0  0  0  0  0  0  0
   -5.5339   24.8520    8.5657 H   0  0  0  0  0  0  0  0  0  0  0  0
   -4.6243   24.6283    7.5636 H   0  0  0  0  0  0  0  0  0  0  0  0
   -4.2088   28.0220    8.2392 H   0  0  0  0  0  0  0  0  0  0  0  0
   -2.4862   24.9273    5.4755 H   0  0  0  0  0  0  0  0  0  0  0  0
   -3.8829   24.8857    6.8894 H   0  0  0  0  0  0  0  0  0  0  0  0
   -1.5548   25.9199    4.8454 H   0  0  0  0  0  0  0  0  0  0  0  0
   -0.7455   26.8011    4.2942 H   0  0  0  0  0  0  0  0  0  0  0  0
   -1.5763   29.1731    5.9321 H   0  0  0  0  0  0  0  0  0  0  0  0
   -0.7181   30.1049    5.3463 H   0  0  0  0  0  0  0  0  0  0  0  0
   -0.1234   26.7214    3.6437 H   0  0  0  0  0  0  0  0  0  0  0  0
    0.7469   26.3256    2.6270 H   0  0  0  0  0  0  0  0  0  0  0  0
    2.0410   28.9929    2.1679 H   0  0  0  0  0  0  0  0  0  0  0  0
    2.6934   28.6760    1.3993 H   0  0  0  0  0  0  0  0  0  0  0  0
    0.7029   24.9319    2.2204 H   0  0  0  0  0  0  0  0  0  0  0  0
    0.8475   26.6620    2.6328 H   0  0  0  0  0  0  0  0  0  0  0  0
    3.0724   25.1633   -0.1248 H   0  0  0  0  0  0  0  0  0  0  0  0
    1.4393   22.4704    0.6716 H   0  0  0  0  0  0  0  0  0  0  0  0
    4.0526   23.4312   -1.6867 H   0  0  0  0  0  0  0  0  0  0  0  0
    4.5022   21.7917   -2.6766 H   0  0  0  0  0  0  0  0  0  0  0  0
    3.0575   18.4237   -2.2911 H   0  0  0  0  0  0  0  0  0  0  0  0
    4.3035   19.9546   -3.0683 H   0  0  0  0  0  0  0  0  0  0  0  0
    1.1253   19.7458    0.1105 H   0  0  0  0  0  0  0  0  0  0  0  0
    1.9981   18.3541   -1.2315 H   0  0  0  0  0  0  0  0  0  0  0  0
    1.3961   21.5877    0.4300 H   0  0  0  0  0  0  0  0  0  0  0  0
    4.6101   23.7078   -2.1666 H   0  0  0  0  0  0  0  0  0  0  0  0
    5.7445   25.6988   -2.6808 H   0  0  0  0  0  0  0  0  0  0  0  0
    5.1804   27.5845   -1.4943 H   0  0  0  0  0  0  0  0  0  0  0  0
    4.0764   28.5947   -0.0396 H   0  0  0  0  0  0  0  0  0  0  0  0
    1.8893   29.6144    2.5243 H   0  0  0  0  0  0  0  0  0  0  0  0
   -0.1992   31.0810    5.1322 H   0  0  0  0  0  0  0  0  0  0  0  0
    0.2656   32.8575    5.2326 H   0  0  0  0  0  0  0  0  0  0  0  0
    1.8886   33.7234    3.8551 H   0  0  0  0  0  0  0  0  0  0  0  0
    2.8205   32.5296    2.5169 H   0  0  0  0  0  0  0  0  0  0  0  0
    2.3776   30.4120    2.2837 H   0  0  0  0  0  0  0  0  0  0  0  0
   -1.7711   29.1852    6.1251 H   0  0  0  0  0  0  0  0  0  0  0  0
   -2.2345   30.1356    6.9107 H   0  0  0  0  0  0  0  0  0  0  0  0
   -4.1597   28.2900    8.2722 H   0  0  0  0  0  0  0  0  0  0  0  0
   -4.9172   29.3791    8.7155 H   0  0  0  0  0  0  0  0  0  0  0  0
   -2.4372   30.9200    8.0509 H   0  0  0  0  0  0  0  0  0  0  0  0
   -5.1731   30.2997    9.9664 H   0  0  0  0  0  0  0  0  0  0  0  0
   -2.3832   33.2789    8.0716 H   0  0  0  0  0  0  0  0  0  0  0  0
   -2.6661   31.3404    7.7350 H   0  0  0  0  0  0  0  0  0  0  0  0
   -4.3885   34.4350   10.4990 H   0  0  0  0  0  0  0  0  0  0  0  0
   -2.9208   34.3535    8.9695 H   0  0  0  0  0  0  0  0  0  0  0  0
   -5.8187   32.4250   11.3143 H   0  0  0  0  0  0  0  0  0  0  0  0
   -6.0162   23.7691    8.7075 H   0  0  0  0  0  0  0  0  0  0  0  0
   -6.7304   22.8409    9.1365 H   0  0  0  0  0  0  0  0  0  0  0  0
   -8.9660   22.7444   11.3897 H   0  0  0  0  0  0  0  0  0  0  0  0
   -6.6691   22.4651    8.9518 H   0  0  0  0  0  0  0  0  0  0  0  0
   -8.3476   21.1231   10.2325 H   0  0  0  0  0  0  0  0  0  0  0  0
   -9.1370   23.7307   11.8842 H   0  0  0  0  0  0  0  0  0  0  0  0
   -6.4474   25.5568    9.7276 H   0  0  0  0  0  0  0  0  0  0  0  0
   -7.0246   24.5118    9.9787 H   0  0  0  0  0  0  0  0  0  0  0  0
   -9.7878   25.8514   13.2366 H   0  0  0  0  0  0  0  0  0  0  0  0
   -8.9310   27.7754   12.9847 H   0  0  0  0  0  0  0  0  0  0  0  0
  1  2  1  0
  2  3  1  0
  3  4  1  0
  4  5  1  0
  5  6  1  0
  6  7  1  0
  7  8  1  0
  8  9  1  0
  9 10  1  0
 10 11  1  0
 11 12  1  0
 12 13  1  0
 13 14  1  0
 14 15  1  0
 15 16  1  0
 16 17  1  0
 17 18  1  0
 18 19  1  0
 19 20  1  0
 20 21  1  0
 21 22  1  0
 17 23  1  0
 23 24  1  0
 24 25  1  0
 25 26  1  0
 26 27  1  0
 12 28  1  0
 28 29  1  0
 29 30  1  0
 30 31  1  0
  9 32  1  0
 32 33  1  0
 33 34  1  0
 34 35  1  0
 35 36  1  0
 36 37  1  0
 37 38  1  0
  4 39  1  0
 39 40  1  0
 40 41  1  0
 40 42  1  0
 42 43  1  0
 42 44  1  0
 43  2  1  0
 44  2  1  0
 32  7  1  0
 38 35  1  0
 28 11  1  0
 31 29  1  0
 27 14  1  0
 23 16  1  0
 26 24  1  0
 22 18  1  0
 26 23  1  0
 22 19  1  0
  1 45  1  0
  1 46  1  0
  1 47  1  0
  3 48  1  0
  3 49  1  0
  4 50  1  0
  6 51  1  0
  7 52  1  0
  8 53  1  0
  8 54  1  0
  9 55  1  0
 10 56  1  0
 10 57  1  0
 11 58  1  0
 12 59  1  0
 13 60  1  0
 13 61  1  0
 14 62  1  0
 15 63  1  0
 15 64  1  0
 16 65  1  0
 17 66  1  0
 18 67  1  0
 19 68  1  0
 20 69  1  0
 20 70  1  0
 21 71  1  0
 21 72  1  0
 22 73  1  0
 24 74  1  0
 25 75  1  0
 25 76  1  0
 27 77  1  0
 28 78  1  0
 29 79  1  0
 30 80  1  0
 30 81  1  0
 31 82  1  0
 31 83  1  0
 32 84  1  0
 33 85  1  0
 33 86  1  0
 34 87  1  0
 34 88  1  0
 35 89  1  0
 36 90  1  0
 36 91  1  0
 37 92  1  0
 37 93  1  0
 38 94  1  0
 39 95  1  0
 39 96  1  0
 40 97  1  0
 41 98  1  0
 41 99  1  0
 42100  1  0
 43101  1  0
 43102  1  0
 44103  1  0
 44104  1  0
M  END
