
     RDKit          2D

 43 45  0  0  0  0  0  0  0  0999 V2000
   16.6737  -19.9843  -12.1873 C   0  0  0  0  0  0  0  0  0  0  0  0
   17.7349  -20.6244  -11.3422 C   0  0  0  0  0  0  0  0  0  0  0  0
   18.7960  -21.2644  -10.4971 C   0  0  0  0  0  0  0  0  0  0  0  0
   17.8382  -21.3308   -9.3446 N   0  0  0  0  0  0  0  0  0  0  0  0
   18.2783  -21.9183   -8.0365 C   0  0  0  0  0  0  0  0  0  0  0  0
   18.2266  -22.3805   -6.6104 C   0  0  0  0  0  0  0  0  0  0  0  0
   19.6246  -22.9017   -6.4548 N   0  0  0  0  0  0  0  0  0  0  0  0
   17.0152  -21.7617   -7.2426 C   0  0  0  0  0  0  0  0  0  0  0  0
   16.1365  -21.1199   -8.2750 F   0  0  0  0  0  0  0  0  0  0  0  0
   16.0574  -21.8281   -6.0902 C   0  0  0  0  0  0  0  0  0  0  0  0
   15.0995  -21.8944   -4.9377 C   0  0  0  0  0  0  0  0  0  0  0  0
   14.1417  -21.9608   -3.7852 C   0  0  0  0  0  0  0  0  0  0  0  0
   12.8788  -21.8043   -2.9912 C   0  0  0  0  0  0  0  0  0  0  0  0
   12.9303  -21.3420   -4.4173 C   0  0  0  0  0  0  0  0  0  0  0  0
   11.5323  -20.8210   -4.5728 O   0  0  0  0  0  0  0  0  0  0  0  0
   19.8572  -21.9045   -9.6519 C   0  0  0  0  0  0  0  0  0  0  0  0
   21.1835  -22.4787   -9.2503 C   0  0  0  0  0  0  0  0  0  0  0  0
   20.9891  -21.9372  -10.6357 C   0  0  0  0  0  0  0  0  0  0  0  0
   15.6125  -19.3442  -13.0325 H   0  0  0  0  0  0  0  0  0  0  0  0
   17.6385  -19.8970  -13.3326 H   0  0  0  0  0  0  0  0  0  0  0  0
   15.7089  -20.0716  -11.0421 H   0  0  0  0  0  0  0  0  0  0  0  0
   18.7890  -20.1140  -12.2793 H   0  0  0  0  0  0  0  0  0  0  0  0
   16.5592  -21.0529  -10.5150 H   0  0  0  0  0  0  0  0  0  0  0  0
   19.6174  -21.1205  -11.7439 H   0  0  0  0  0  0  0  0  0  0  0  0
   16.4142  -20.8596   -9.3259 H   0  0  0  0  0  0  0  0  0  0  0  0
   19.0379  -22.1430   -8.1257 H   0  0  0  0  0  0  0  0  0  0  0  0
   17.8921  -22.6953   -5.3409 H   0  0  0  0  0  0  0  0  0  0  0  0
   20.0646  -23.4891   -5.1466 H   0  0  0  0  0  0  0  0  0  0  0  0
   20.7046  -22.9138   -7.4956 H   0  0  0  0  0  0  0  0  0  0  0  0
   14.9966  -21.1867   -6.9348 H   0  0  0  0  0  0  0  0  0  0  0  0
   16.8998  -22.4083   -5.2092 H   0  0  0  0  0  0  0  0  0  0  0  0
   14.0384  -21.2542   -5.7828 H   0  0  0  0  0  0  0  0  0  0  0  0
   16.1525  -22.4591   -4.3092 H   0  0  0  0  0  0  0  0  0  0  0  0
   15.0206  -22.6027   -2.7529 H   0  0  0  0  0  0  0  0  0  0  0  0
   13.3190  -22.3919   -1.6831 H   0  0  0  0  0  0  0  0  0  0  0  0
   11.4629  -21.4438   -2.6515 H   0  0  0  0  0  0  0  0  0  0  0  0
   13.2647  -21.0273   -5.6867 H   0  0  0  0  0  0  0  0  0  0  0  0
   11.0921  -20.2335   -5.8808 H   0  0  0  0  0  0  0  0  0  0  0  0
   19.5330  -22.0443   -8.9372 H   0  0  0  0  0  0  0  0  0  0  0  0
   21.0537  -22.9275   -7.8250 H   0  0  0  0  0  0  0  0  0  0  0  0
   22.6149  -22.9179   -9.3409 H   0  0  0  0  0  0  0  0  0  0  0  0
   22.3530  -22.1884  -11.2073 H   0  0  0  0  0  0  0  0  0  0  0  0
   20.4804  -21.3308  -11.9099 H   0  0  0  0  0  0  0  0  0  0  0  0
  1  2  1  0
  2  3  1  0
  3  4  1  0
  4  5  1  0
  5  6  1  0
  6  7  1  0
  6  8  1  0
  8  9  1  0
  8 10  1  0
 10 11  1  0
 11 12  1  0
 12 13  1  0
 13 14  1  0
 14 15  1  0
  3 16  1  0
 16 17  1  0
 17 18  1  0
  8  5  1  0
 14 12  1  0
 18 16  1  0
  1 19  1  0
  1 20  1  0
  1 21  1  0
  2 22  1  0
  2 23  1  0
  3 24  1  0
  4 25  1  0
  5 26  1  0
  6 27  1  0
  7 28  1  0
  7 29  1  0
 10 30  1  0
 10 31  1  0
 11 32  1  0
 11 33  1  0
 12 34  1  0
 13 35  1  0
 13 36  1  0
 14 37  1  0
 15 38  1  0
 16 39  1  0
 17 40  1  0
 17 41  1  0
 18 42  1  0
 18 43  1  0
M  END
