
     RDKit          2D

 59 59  0  0  0  0  0  0  0  0999 V2000
    3.5327   27.5468    2.6291 C   0  0  0  0  0  0  0  0  0  0  0  0
    3.6825   26.7396    3.8845 C   0  0  0  0  0  0  0  0  0  0  0  0
    3.8323   25.9324    5.1398 C   0  0  0  0  0  0  0  0  0  0  0  0
    3.9821   25.1252    6.3952 C   0  0  0  0  0  0  0  0  0  0  0  0
    4.1319   24.3179    7.6506 C   0  0  0  0  0  0  0  0  0  0  0  0
    4.2817   23.5107    8.9060 N   0  0  0  0  0  0  0  0  0  0  0  0
    2.3533   26.0214    5.3736 C   0  0  0  0  0  0  0  0  0  0  0  0
    0.8743   26.1105    5.6073 N   0  0  0  0  0  0  0  0  0  0  0  0
    0.0063   26.8619    4.6419 C   0  0  0  0  0  0  0  0  0  0  0  0
    0.2633   25.4480    6.8064 C   0  0  0  0  0  0  0  0  0  0  0  0
   -0.3477   24.7856    8.0055 C   0  0  0  0  0  0  0  0  0  0  0  0
   -0.9588   24.1231    9.2046 C   0  0  0  0  0  0  0  0  0  0  0  0
   -1.0815   25.9883    6.4196 O   0  0  0  0  0  0  0  0  0  0  0  0
   -2.2830   25.6850    7.2648 C   0  0  0  0  0  0  0  0  0  0  0  0
   -1.3030   24.9221    8.1060 C   0  0  0  0  0  0  0  0  0  0  0  0
   -0.5265   24.7430    8.1280 O   0  0  0  0  0  0  0  0  0  0  0  0
   -2.0512   24.3201    9.2582 O   0  0  0  0  0  0  0  0  0  0  0  0
   -3.4936   24.7109    9.1292 O   0  0  0  0  0  0  0  0  0  0  0  0
   -3.6369   25.5545    7.8973 C   0  0  0  0  0  0  0  0  0  0  0  0
   -4.0827   26.4081    6.7472 C   0  0  0  0  0  0  0  0  0  0  0  0
   -4.5286   27.2617    5.5972 C   0  0  0  0  0  0  0  0  0  0  0  0
   -4.9744   28.1153    4.4471 C   0  0  0  0  0  0  0  0  0  0  0  0
   -5.4202   28.9689    3.2971 C   0  0  0  0  0  0  0  0  0  0  0  0
   -5.8694   28.3281    2.0173 C   0  0  0  0  0  0  0  0  0  0  0  0
   -5.4169   30.4633    3.4268 S   0  0  0  0  0  0  0  0  0  0  0  0
    3.3829   28.3541    1.3737 H   0  0  0  0  0  0  0  0  0  0  0  0
    5.0120   27.4599    2.3967 H   0  0  0  0  0  0  0  0  0  0  0  0
    2.0534   27.6338    2.8615 H   0  0  0  0  0  0  0  0  0  0  0  0
    2.1966   26.9280    3.9645 H   0  0  0  0  0  0  0  0  0  0  0  0
    5.1612   26.6489    3.6497 H   0  0  0  0  0  0  0  0  0  0  0  0
    5.3113   25.8434    4.9061 H   0  0  0  0  0  0  0  0  0  0  0  0
    5.4606   25.0332    6.1597 H   0  0  0  0  0  0  0  0  0  0  0  0
    2.5328   25.1180    6.7820 H   0  0  0  0  0  0  0  0  0  0  0  0
    5.6101   24.2241    7.4139 H   0  0  0  0  0  0  0  0  0  0  0  0
    2.6537   24.4117    7.8873 H   0  0  0  0  0  0  0  0  0  0  0  0
    5.6367   23.0255    9.3284 H   0  0  0  0  0  0  0  0  0  0  0  0
    3.0765   23.1887    9.7389 H   0  0  0  0  0  0  0  0  0  0  0  0
    2.3202   25.2217    6.6422 H   0  0  0  0  0  0  0  0  0  0  0  0
    2.0258   26.8428    4.1619 H   0  0  0  0  0  0  0  0  0  0  0  0
   -0.8617   27.6133    3.6766 H   0  0  0  0  0  0  0  0  0  0  0  0
    1.1905   27.0809    3.7477 H   0  0  0  0  0  0  0  0  0  0  0  0
   -1.1779   26.6429    5.5362 H   0  0  0  0  0  0  0  0  0  0  0  0
    1.6081   24.9077    7.1932 H   0  0  0  0  0  0  0  0  0  0  0  0
    1.0075   24.3019    8.4288 H   0  0  0  0  0  0  0  0  0  0  0  0
   -1.8312   24.9016    8.1947 H   0  0  0  0  0  0  0  0  0  0  0  0
   -1.5698   23.4607   10.4037 H   0  0  0  0  0  0  0  0  0  0  0  0
    0.3956   23.6341    9.6245 H   0  0  0  0  0  0  0  0  0  0  0  0
   -2.4207   24.4374    9.0872 H   0  0  0  0  0  0  0  0  0  0  0  0
   -2.8498   26.5317    6.1641 H   0  0  0  0  0  0  0  0  0  0  0  0
   -5.0839   25.6024    8.2892 H   0  0  0  0  0  0  0  0  0  0  0  0
   -2.6621   26.5187    6.2787 H   0  0  0  0  0  0  0  0  0  0  0  0
   -5.5472   26.4022    7.0721 H   0  0  0  0  0  0  0  0  0  0  0  0
   -3.1203   27.3034    5.0823 H   0  0  0  0  0  0  0  0  0  0  0  0
   -5.9368   27.2199    6.1121 H   0  0  0  0  0  0  0  0  0  0  0  0
   -6.3826   28.0736    4.9620 H   0  0  0  0  0  0  0  0  0  0  0  0
   -3.5662   28.1569    3.9322 H   0  0  0  0  0  0  0  0  0  0  0  0
   -6.3185   27.6874    0.7377 H   0  0  0  0  0  0  0  0  0  0  0  0
   -7.2847   28.3281    2.5141 H   0  0  0  0  0  0  0  0  0  0  0  0
   -4.4540   28.3281    1.5205 H   0  0  0  0  0  0  0  0  0  0  0  0
  1  2  1  0
  2  3  1  0
  3  4  1  0
  4  5  1  0
  5  6  1  0
  3  7  1  0
  7  8  1  0
  8  9  1  0
  8 10  1  0
 10 11  1  0
 11 12  1  0
 10 13  1  0
 13 14  1  0
 14 15  1  0
 15 16  2  0
 15 17  1  0
 17 18  1  0
 18 19  1  0
 19 20  1  0
 20 21  1  0
 21 22  1  0
 22 23  1  0
 23 24  1  0
 23 25  2  0
 19 14  1  0
  1 26  1  0
  1 27  1  0
  1 28  1  0
  2 29  1  0
  2 30  1  0
  3 31  1  0
  4 32  1  0
  4 33  1  0
  5 34  1  0
  5 35  1  0
  6 36  1  0
  6 37  1  0
  7 38  1  0
  7 39  1  0
  9 40  1  0
  9 41  1  0
  9 42  1  0
 10 43  1  0
 11 44  1  0
 11 45  1  0
 12 46  1  0
 12 47  1  0
 12 48  1  0
 14 49  1  0
 19 50  1  0
 20 51  1  0
 20 52  1  0
 21 53  1  0
 21 54  1  0
 22 55  1  0
 22 56  1  0
 24 57  1  0
 24 58  1  0
 24 59  1  0
M  END
