
     RDKit          2D

 93 96  0  0  0  0  0  0  0  0999 V2000
   -9.9986   31.8192   12.5205 C   0  0  0  0  0  0  0  0  0  0  0  0
   -9.2828   32.9846   11.9046 C   0  0  0  0  0  0  0  0  0  0  0  0
   -8.5670   34.1500   11.2888 C   0  0  0  0  0  0  0  0  0  0  0  0
   -7.8512   35.3155   10.6729 C   0  0  0  0  0  0  0  0  0  0  0  0
   -7.9056   33.2263   10.3094 O   0  0  0  0  0  0  0  0  0  0  0  0
   -8.0014   31.7411   10.4968 C   0  0  0  0  0  0  0  0  0  0  0  0
   -7.2115   31.2771    9.3090 C   0  0  0  0  0  0  0  0  0  0  0  0
   -8.3715   30.4171   11.0968 C   0  0  0  0  0  0  0  0  0  0  0  0
   -8.5383   28.9558   11.3916 C   0  0  0  0  0  0  0  0  0  0  0  0
   -9.2273   28.1614   12.4613 C   0  0  0  0  0  0  0  0  0  0  0  0
  -10.0348   28.4994   13.6794 C   0  0  0  0  0  0  0  0  0  0  0  0
  -10.8175   28.0614   14.8817 C   0  0  0  0  0  0  0  0  0  0  0  0
  -11.6003   27.6234   16.0840 O   0  0  0  0  0  0  0  0  0  0  0  0
       nan       nan       nan O   0  0  0  0  0  0  0  0  0  0  0  0
       nan       nan       nan O   0  0  0  0  0  0  0  0  0  0  0  0
  -10.4878   29.7716   14.3323 C   0  0  0  0  0  0  0  0  0  0  0  0
  -11.2869   29.4357   15.5565 C   0  0  0  0  0  0  0  0  0  0  0  0
  -12.0890   29.8176   16.7651 N   0  0  0  0  0  0  0  0  0  0  0  0
  -12.7104   30.8297   17.6813 C   0  0  0  0  0  0  0  0  0  0  0  0
  -13.3853   29.9974   18.7308 N   0  0  0  0  0  0  0  0  0  0  0  0
  -13.3127   28.5006   18.6625 C   0  0  0  0  0  0  0  0  0  0  0  0
  -13.0087   32.2403   18.0952 N   0  0  0  0  0  0  0  0  0  0  0  0
  -12.9156   33.7262   17.9119 O   0  0  0  0  0  0  0  0  0  0  0  0
  -12.4525   34.9468   17.1734 C   0  0  0  0  0  0  0  0  0  0  0  0
  -11.7254   35.6229   16.0490 N   0  0  0  0  0  0  0  0  0  0  0  0
  -11.9288   37.0845   16.3172 C   0  0  0  0  0  0  0  0  0  0  0  0
  -11.1335   37.4203   15.0906 O   0  0  0  0  0  0  0  0  0  0  0  0
  -12.1324   38.5463   16.5854 C   0  0  0  0  0  0  0  0  0  0  0  0
  -12.5969   39.8050   17.2562 C   0  0  0  0  0  0  0  0  0  0  0  0
  -12.9546   38.4694   17.8376 C   0  0  0  0  0  0  0  0  0  0  0  0
  -10.9008   35.5992   14.7962 C   0  0  0  0  0  0  0  0  0  0  0  0
  -10.1678   34.8812   13.7019 C   0  0  0  0  0  0  0  0  0  0  0  0
  -10.0747   36.3671   13.5186 C   0  0  0  0  0  0  0  0  0  0  0  0
   -9.6941   33.6336   13.0170 C   0  0  0  0  0  0  0  0  0  0  0  0
   -9.2310   34.8543   12.2786 C   0  0  0  0  0  0  0  0  0  0  0  0
   -8.8920   33.2518   11.8083 C   0  0  0  0  0  0  0  0  0  0  0  0
   -9.6321   32.0272   12.9678 C   0  0  0  0  0  0  0  0  0  0  0  0
  -10.3210   31.2329   14.0376 C   0  0  0  0  0  0  0  0  0  0  0  0
   -8.8245   31.6893   11.7497 C   0  0  0  0  0  0  0  0  0  0  0  0
  -10.7144   30.6537   13.1364 H   0  0  0  0  0  0  0  0  0  0  0  0
  -10.9736   32.7589   13.1657 H   0  0  0  0  0  0  0  0  0  0  0  0
   -9.2257   30.6253   12.0436 H   0  0  0  0  0  0  0  0  0  0  0  0
   -8.5128   31.7905   11.4238 H   0  0  0  0  0  0  0  0  0  0  0  0
  -10.2548   33.9247   12.5539 H   0  0  0  0  0  0  0  0  0  0  0  0
   -9.2284   35.0738   12.2681 H   0  0  0  0  0  0  0  0  0  0  0  0
   -7.1354   36.4810   10.0570 H   0  0  0  0  0  0  0  0  0  0  0  0
   -6.7349   35.1524   11.6615 H   0  0  0  0  0  0  0  0  0  0  0  0
   -8.9674   35.4786    9.6842 H   0  0  0  0  0  0  0  0  0  0  0  0
   -6.5023   30.4818    8.2533 H   0  0  0  0  0  0  0  0  0  0  0  0
   -6.7908   32.5487    8.6337 H   0  0  0  0  0  0  0  0  0  0  0  0
   -7.4481   29.8509    9.7089 H   0  0  0  0  0  0  0  0  0  0  0  0
   -7.6814   29.5671   10.0716 H   0  0  0  0  0  0  0  0  0  0  0  0
   -8.1856   27.5854   10.8939 H   0  0  0  0  0  0  0  0  0  0  0  0
   -7.7151   29.0076   10.1386 H   0  0  0  0  0  0  0  0  0  0  0  0
   -9.5049   26.7615   12.9227 H   0  0  0  0  0  0  0  0  0  0  0  0
   -8.6828   27.0121   11.6659 H   0  0  0  0  0  0  0  0  0  0  0  0
  -10.0877   27.0053   13.8018 H   0  0  0  0  0  0  0  0  0  0  0  0
  -11.7671   26.1621   16.3788 H   0  0  0  0  0  0  0  0  0  0  0  0
       nan       nan       nan H   0  0  0  0  0  0  0  0  0  0  0  0
       nan       nan       nan H   0  0  0  0  0  0  0  0  0  0  0  0
  -11.3111   29.8899   15.5806 H   0  0  0  0  0  0  0  0  0  0  0  0
  -10.9907   28.0238   15.1459 H   0  0  0  0  0  0  0  0  0  0  0  0
  -11.9014   28.4621   16.5181 H   0  0  0  0  0  0  0  0  0  0  0  0
  -14.1330   30.6616   19.8488 H   0  0  0  0  0  0  0  0  0  0  0  0
  -13.2400   27.0040   18.5941 H   0  0  0  0  0  0  0  0  0  0  0  0
  -14.1342   28.4035   19.9138 H   0  0  0  0  0  0  0  0  0  0  0  0
  -12.4912   28.5977   17.4113 H   0  0  0  0  0  0  0  0  0  0  0  0
  -13.8265   32.0831   19.3428 H   0  0  0  0  0  0  0  0  0  0  0  0
  -13.2546   35.3287   18.3820 H   0  0  0  0  0  0  0  0  0  0  0  0
  -12.6571   36.4082   17.4433 H   0  0  0  0  0  0  0  0  0  0  0  0
  -12.7242   36.7487   17.5438 H   0  0  0  0  0  0  0  0  0  0  0  0
  -10.8127   38.7900   14.5696 H   0  0  0  0  0  0  0  0  0  0  0  0
  -11.4278   39.2949   15.4932 H   0  0  0  0  0  0  0  0  0  0  0  0
  -12.0066   40.8268   16.3301 H   0  0  0  0  0  0  0  0  0  0  0  0
  -13.2664   40.7088   18.2486 H   0  0  0  0  0  0  0  0  0  0  0  0
  -13.7484   38.9093   19.0319 H   0  0  0  0  0  0  0  0  0  0  0  0
  -13.1361   37.0144   18.1544 H   0  0  0  0  0  0  0  0  0  0  0  0
  -11.1032   37.0613   15.0627 H   0  0  0  0  0  0  0  0  0  0  0  0
  -10.4395   36.8223   14.0604 H   0  0  0  0  0  0  0  0  0  0  0  0
   -9.4417   35.5609   12.5790 H   0  0  0  0  0  0  0  0  0  0  0  0
   -9.9816   37.8530   13.3353 H   0  0  0  0  0  0  0  0  0  0  0  0
   -9.2511   36.3454   12.2651 H   0  0  0  0  0  0  0  0  0  0  0  0
  -10.8756   36.7510   14.7274 H   0  0  0  0  0  0  0  0  0  0  0  0
   -8.6881   35.9598   11.4222 H   0  0  0  0  0  0  0  0  0  0  0  0
   -8.5488   33.9830   11.2659 H   0  0  0  0  0  0  0  0  0  0  0  0
   -9.7808   35.9952   13.0824 H   0  0  0  0  0  0  0  0  0  0  0  0
   -8.0675   33.2321   10.5555 H   0  0  0  0  0  0  0  0  0  0  0  0
   -8.7009   34.7022   11.4770 H   0  0  0  0  0  0  0  0  0  0  0  0
   -8.8834   31.7520   11.8375 H   0  0  0  0  0  0  0  0  0  0  0  0
   -9.5864   33.5223   12.8563 H   0  0  0  0  0  0  0  0  0  0  0  0
  -10.5802   32.6673   14.3913 H   0  0  0  0  0  0  0  0  0  0  0  0
  -11.1442   31.1811   15.2904 H   0  0  0  0  0  0  0  0  0  0  0  0
   -8.8702   30.1942   11.8613 H   0  0  0  0  0  0  0  0  0  0  0  0
  1  2  1  0
  2  3  1  0
  3  4  1  0
  3  5  1  0
  5  6  1  0
  6  7  1  0
  6  8  1  0
  8  9  1  0
  9 10  1  0
 10 11  1  0
 11 12  1  0
 12 13  1  0
 12 14  1  0
 12 15  1  0
 11 16  1  0
 16 17  1  0
 17 18  1  0
 18 19  2  0
 19 20  1  0
 20 21  1  0
 19 22  1  0
 22 23  1  0
 23 24  1  0
 24 25  1  0
 25 26  1  0
 26 27  1  0
 26 28  1  0
 28 29  1  0
 29 30  1  0
 25 31  1  0
 31 32  1  0
 32 33  1  0
 32 34  1  0
 34 35  1  0
 34 36  1  0
 34 37  1  0
 37 38  1  0
 37 39  1  0
 39  6  1  0
 39  8  1  0
 38 16  1  0
 30 28  1  0
  1 40  1  0
  1 41  1  0
  1 42  1  0
  2 43  1  0
  2 44  1  0
  3 45  1  0
  4 46  1  0
  4 47  1  0
  4 48  1  0
  7 49  1  0
  7 50  1  0
  7 51  1  0
  8 52  1  0
  9 53  1  0
  9 54  1  0
 10 55  1  0
 10 56  1  0
 11 57  1  0
 13 58  1  0
 14 59  1  0
 15 60  1  0
 16 61  1  0
 17 62  1  0
 17 63  1  0
 20 64  1  0
 21 65  1  0
 21 66  1  0
 21 67  1  0
 22 68  1  0
 24 69  1  0
 24 70  1  0
 26 71  1  0
 27 72  1  0
 28 73  1  0
 29 74  1  0
 29 75  1  0
 30 76  1  0
 30 77  1  0
 31 78  1  0
 31 79  1  0
 32 80  1  0
 33 81  1  0
 33 82  1  0
 33 83  1  0
 35 84  1  0
 35 85  1  0
 35 86  1  0
 36 87  1  0
 36 88  1  0
 36 89  1  0
 37 90  1  0
 38 91  1  0
 38 92  1  0
 39 93  1  0
M  END
