
     RDKit          2D

 41 41  0  0  0  0  0  0  0  0999 V2000
    2.2930   23.9904    1.9424 C   0  0  0  0  0  0  0  0  0  0  0  0
    2.6103   23.8570    3.4023 C   0  0  0  0  0  0  0  0  0  0  0  0
    2.9275   23.7237    4.8623 C   0  0  0  0  0  0  0  0  0  0  0  0
    3.2448   23.5904    6.3223 C   0  0  0  0  0  0  0  0  0  0  0  0
    1.6229   24.3795    5.2057 C   0  0  0  0  0  0  0  0  0  0  0  0
    0.3183   25.0353    5.5491 O   0  0  0  0  0  0  0  0  0  0  0  0
    0.1493   25.7220    6.8719 C   0  0  0  0  0  0  0  0  0  0  0  0
    1.5583   25.3616    7.2391 C   0  0  0  0  0  0  0  0  0  0  0  0
   -1.2596   26.0825    6.5049 C   0  0  0  0  0  0  0  0  0  0  0  0
   -2.6687   26.4430    6.1377 C   0  0  0  0  0  0  0  0  0  0  0  0
   -4.0777   26.8034    5.7707 C   0  0  0  0  0  0  0  0  0  0  0  0
   -3.6006   26.0508    4.5640 O   0  0  0  0  0  0  0  0  0  0  0  0
   -4.3478   25.7363    3.3021 C   0  0  0  0  0  0  0  0  0  0  0  0
   -5.7569   26.0968    2.9349 C   0  0  0  0  0  0  0  0  0  0  0  0
   -6.7666   26.8608    3.7392 C   0  0  0  0  0  0  0  0  0  0  0  0
   -6.6166   27.4529    5.1092 Se  0  0  0  0  0  2  0  0  0  0  0  0
   -5.4201   27.4275    6.0132 O   0  0  0  0  0  0  0  0  0  0  0  0
    1.9757   24.1237    0.4824 H   0  0  0  0  0  0  0  0  0  0  0  0
    3.7035   23.6108    1.6012 H   0  0  0  0  0  0  0  0  0  0  0  0
    0.8825   24.3699    2.2835 H   0  0  0  0  0  0  0  0  0  0  0  0
    1.5114   24.8680    3.5456 H   0  0  0  0  0  0  0  0  0  0  0  0
    3.6784   22.8549    3.0787 H   0  0  0  0  0  0  0  0  0  0  0  0
    4.2321   23.0679    4.5189 H   0  0  0  0  0  0  0  0  0  0  0  0
    3.5620   23.4571    7.7823 H   0  0  0  0  0  0  0  0  0  0  0  0
    4.7099   23.5656    6.0016 H   0  0  0  0  0  0  0  0  0  0  0  0
    2.4662   23.6036    6.4927 H   0  0  0  0  0  0  0  0  0  0  0  0
    2.0068   24.8983    5.6736 H   0  0  0  0  0  0  0  0  0  0  0  0
    0.7469   23.4906    4.3736 H   0  0  0  0  0  0  0  0  0  0  0  0
   -0.0196   26.4087    8.1948 H   0  0  0  0  0  0  0  0  0  0  0  0
    2.9673   25.0012    7.6063 H   0  0  0  0  0  0  0  0  0  0  0  0
    1.7360   25.9427    8.6105 H   0  0  0  0  0  0  0  0  0  0  0  0
    1.7266   24.6727    5.9173 H   0  0  0  0  0  0  0  0  0  0  0  0
   -1.0903   25.3969    5.1815 H   0  0  0  0  0  0  0  0  0  0  0  0
   -1.4291   26.7681    7.8282 H   0  0  0  0  0  0  0  0  0  0  0  0
   -2.8306   27.1481    7.4517 H   0  0  0  0  0  0  0  0  0  0  0  0
   -2.5067   25.7378    4.8238 H   0  0  0  0  0  0  0  0  0  0  0  0
   -3.9278   27.3956    7.1406 H   0  0  0  0  0  0  0  0  0  0  0  0
   -3.5853   24.9585    2.2708 H   0  0  0  0  0  0  0  0  0  0  0  0
   -6.2170   25.6318    1.5852 H   0  0  0  0  0  0  0  0  0  0  0  0
   -8.1089   27.4848    3.9818 H   0  0  0  0  0  0  0  0  0  0  0  0
   -7.5139   26.5463    2.4772 H   0  0  0  0  0  0  0  0  0  0  0  0
  1  2  1  0
  2  3  1  0
  3  4  1  0
  3  5  1  0
  5  6  1  0
  6  7  1  0
  7  8  1  0
  7  9  1  0
  9 10  1  0
 10 11  1  0
 11 12  1  0
 12 13  1  0
 13 14  2  0
 14 15  1  0
 15 16  1  0
 16 17  1  0
 17 11  1  0
  1 18  1  0
  1 19  1  0
  1 20  1  0
  2 21  1  0
  2 22  1  0
  3 23  1  0
  4 24  1  0
  4 25  1  0
  4 26  1  0
  5 27  1  0
  5 28  1  0
  7 29  1  0
  8 30  1  0
  8 31  1  0
  8 32  1  0
  9 33  1  0
  9 34  1  0
 10 35  1  0
 10 36  1  0
 11 37  1  0
 13 38  1  0
 14 39  1  0
 15 40  1  0
 15 41  1  0
M  END
