
     RDKit          2D

 41 43  0  0  0  0  0  0  0  0999 V2000
   -6.8703   31.1879    6.6160 C   0  0  0  0  0  0  0  0  0  0  0  0
   -7.2506   30.6322    7.9564 C   0  0  0  0  0  0  0  0  0  0  0  0
   -6.2241   29.9320    8.7966 N   0  0  0  0  0  0  0  0  0  0  0  0
   -4.8173   29.7875    8.2966 C   0  0  0  0  0  0  0  0  0  0  0  0
   -3.3637   29.4954    8.0692 C   0  0  0  0  0  0  0  0  0  0  0  0
   -2.9834   30.0511    6.7288 C   0  0  0  0  0  0  0  0  0  0  0  0
   -1.6260   29.5080    7.0643 C   0  0  0  0  0  0  0  0  0  0  0  0
   -4.2019   30.6867    6.1279 N   0  0  0  0  0  0  0  0  0  0  0  0
   -5.3354   30.5237    7.0968 N   0  0  0  0  0  0  0  0  0  0  0  0
   -6.6045   29.3762   10.1370 C   0  0  0  0  0  0  0  0  0  0  0  0
   -5.5780   28.6760   10.9773 C   0  0  0  0  0  0  0  0  0  0  0  0
   -5.9583   28.1203   12.3176 C   0  0  0  0  0  0  0  0  0  0  0  0
   -7.3650   28.2648   12.8177 S   0  0  0  0  0  0  0  0  0  0  0  0
   -8.3915   28.9650   11.9774 N   0  0  0  0  0  0  0  0  0  0  0  0
   -9.4180   29.6652   11.1371 C   0  0  0  0  0  0  0  0  0  0  0  0
   -9.0377   30.2209    9.7968 N   0  0  0  0  0  0  0  0  0  0  0  0
   -7.6309   30.0764    9.2967 C   0  0  0  0  0  0  0  0  0  0  0  0
   -8.0112   29.5207   10.6371 C   0  0  0  0  0  0  0  0  0  0  0  0
   -7.8968   31.8881    5.7758 H   0  0  0  0  0  0  0  0  0  0  0  0
   -5.4635   31.0434    6.1159 H   0  0  0  0  0  0  0  0  0  0  0  0
   -8.6924   30.8640    8.2993 H   0  0  0  0  0  0  0  0  0  0  0  0
   -4.4198   29.0600    9.5466 H   0  0  0  0  0  0  0  0  0  0  0  0
   -3.4436   28.8504    9.4211 H   0  0  0  0  0  0  0  0  0  0  0  0
   -2.6208   29.2311    8.1860 H   0  0  0  0  0  0  0  0  0  0  0  0
   -2.3193   30.4933    5.4586 H   0  0  0  0  0  0  0  0  0  0  0  0
   -0.2686   28.9649    7.3997 H   0  0  0  0  0  0  0  0  0  0  0  0
   -1.0417   30.2477    5.8974 H   0  0  0  0  0  0  0  0  0  0  0  0
   -1.8463   29.0827    7.7015 H   0  0  0  0  0  0  0  0  0  0  0  0
   -4.2743   31.3659    4.7924 H   0  0  0  0  0  0  0  0  0  0  0  0
   -6.6065   31.1314    6.5819 H   0  0  0  0  0  0  0  0  0  0  0  0
   -4.2605   28.0993   11.4034 H   0  0  0  0  0  0  0  0  0  0  0  0
   -4.6013   28.9498    9.8722 H   0  0  0  0  0  0  0  0  0  0  0  0
   -5.8352   27.4313   13.6443 H   0  0  0  0  0  0  0  0  0  0  0  0
   -4.5087   27.7365   12.2783 H   0  0  0  0  0  0  0  0  0  0  0  0
  -10.7355   30.2420   10.7110 H   0  0  0  0  0  0  0  0  0  0  0  0
  -10.2558   29.3098   12.3295 H   0  0  0  0  0  0  0  0  0  0  0  0
  -10.0642   30.9211    8.9565 H   0  0  0  0  0  0  0  0  0  0  0  0
   -6.6733   30.3622    8.1781 H   0  0  0  0  0  0  0  0  0  0  0  0
   -8.3990   30.8121    8.2390 H   0  0  0  0  0  0  0  0  0  0  0  0
   -8.4815   30.2541    9.4161 H   0  0  0  0  0  0  0  0  0  0  0  0
   -9.3861   30.0460   10.3476 H   0  0  0  0  0  0  0  0  0  0  0  0
  1  2  2  3
  2  3  1  0
  3  4  1  0
  4  5  1  0
  5  6  1  0
  6  7  1  0
  6  8  1  0
  8  9  1  0
  3 10  1  0
 10 11  1  0
 11 12  1  0
 12 13  1  0
 13 14  1  0
 14 15  1  0
 15 16  1  0
 16 17  1  0
 14 18  1  0
  9  4  1  0
 17 10  1  0
 18 10  1  0
  1 19  1  0
  1 20  1  0
  2 21  1  0
  4 22  1  0
  5 23  1  0
  5 24  1  0
  6 25  1  0
  7 26  1  0
  7 27  1  0
  7 28  1  0
  8 29  1  0
  9 30  1  0
 11 31  1  0
 11 32  1  0
 12 33  1  0
 12 34  1  0
 15 35  1  0
 15 36  1  0
 16 37  1  0
 17 38  1  0
 17 39  1  0
 18 40  1  0
 18 41  1  0
M  END
