
     RDKit          2D

 21 24  0  0  0  0  0  0  0  0999 V2000
   17.0213  -19.0128   -7.8326 C   0  0  0  0  0  0  0  0  0  0  0  0
   16.9393  -17.7192   -7.0777 C   0  0  0  0  0  0  0  0  0  0  0  0
   15.7711  -18.2476   -6.2991 N   0  0  0  0  0  0  0  0  0  0  0  0
   14.8871  -17.7065   -5.2148 N   0  0  0  0  0  0  0  0  0  0  0  0
   13.7800  -18.5516   -4.6581 N   0  0  0  0  0  0  0  0  0  0  0  0
   12.8960  -18.0104   -3.5738 C   0  0  0  0  0  0  0  0  0  0  0  0
   12.0120  -17.4693   -2.4895 C   0  0  0  0  0  0  0  0  0  0  0  0
   13.1201  -16.6247   -3.0451 C   0  0  0  0  0  0  0  0  0  0  0  0
   11.7879  -18.8550   -3.0181 C   0  0  0  0  0  0  0  0  0  0  0  0
   15.8531  -19.5412   -7.0540 C   0  0  0  0  0  0  0  0  0  0  0  0
   17.1032  -20.3065   -8.5874 H   0  0  0  0  0  0  0  0  0  0  0  0
   18.1894  -18.4845   -8.6111 H   0  0  0  0  0  0  0  0  0  0  0  0
   18.1075  -17.1909   -7.8564 H   0  0  0  0  0  0  0  0  0  0  0  0
   16.8573  -16.4256   -6.3229 H   0  0  0  0  0  0  0  0  0  0  0  0
   15.1103  -16.3201   -4.6872 H   0  0  0  0  0  0  0  0  0  0  0  0
   13.5568  -19.9379   -5.1857 H   0  0  0  0  0  0  0  0  0  0  0  0
   11.1280  -16.9281   -1.4051 H   0  0  0  0  0  0  0  0  0  0  0  0
   13.8893  -15.3371   -3.0607 H   0  0  0  0  0  0  0  0  0  0  0  0
   11.0187  -20.1427   -3.0025 H   0  0  0  0  0  0  0  0  0  0  0  0
   14.6849  -20.0696   -6.2754 H   0  0  0  0  0  0  0  0  0  0  0  0
   15.9350  -20.8349   -7.8088 H   0  0  0  0  0  0  0  0  0  0  0  0
  1  2  1  0
  2  3  1  0
  3  4  1  0
  4  5  1  0
  5  6  1  0
  6  7  1  0
  7  8  1  0
  8  9  1  0
  3 10  1  0
 10  1  1  0
  8  6  1  0
  9  6  1  0
  9  7  1  0
  1 11  1  0
  1 12  1  0
  2 13  1  0
  2 14  1  0
  4 15  1  0
  5 16  1  0
  7 17  1  0
  8 18  1  0
  9 19  1  0
 10 20  1  0
 10 21  1  0
M  END
