
     RDKit          2D

 80 84  0  0  0  0  0  0  0  0999 V2000
   -0.4462   18.8268    0.4141 C   0  0  0  0  0  0  0  0  0  0  0  0
    1.0280   18.7214    0.1580 C   0  0  0  0  0  0  0  0  0  0  0  0
    2.5022   18.6162   -0.0982 N   0  0  0  0  0  0  0  0  0  0  0  0
    3.4747   19.2715    0.8373 N   0  0  0  0  0  0  0  0  0  0  0  0
    3.9147   20.6844    0.5928 C   0  0  0  0  0  0  0  0  0  0  0  0
    4.3546   22.0975    0.3483 C   0  0  0  0  0  0  0  0  0  0  0  0
    3.2214   22.5968    1.1947 I   0  0  0  0  0  0  0  0  0  0  0  0
    4.7946   23.5105    0.1037 C   0  0  0  0  0  0  0  0  0  0  0  0
    5.2345   24.9236   -0.1408 C   0  0  0  0  0  0  0  0  0  0  0  0
    4.0154   24.9971    0.7301 C   0  0  0  0  0  0  0  0  0  0  0  0
    3.1421   26.0158    1.4007 C   0  0  0  0  0  0  0  0  0  0  0  0
    3.0233   27.5028    1.5573 C   0  0  0  0  0  0  0  0  0  0  0  0
    2.0288   26.5969    2.2209 C   0  0  0  0  0  0  0  0  0  0  0  0
    1.3376   25.3372    2.6516 O   0  0  0  0  0  0  0  0  0  0  0  0
    1.1555   27.6156    2.8915 C   0  0  0  0  0  0  0  0  0  0  0  0
    0.2822   28.6342    3.5621 O   0  0  0  0  0  0  0  0  0  0  0  0
   -0.8957   28.1914    4.3786 C   0  0  0  0  0  0  0  0  0  0  0  0
   -2.0735   27.7485    5.1950 C   0  0  0  0  0  0  0  0  0  0  0  0
   -3.2513   27.3056    6.0114 C   0  0  0  0  0  0  0  0  0  0  0  0
   -4.4291   26.8627    6.8278 C   0  0  0  0  0  0  0  0  0  0  0  0
   -5.6069   26.4197    7.6442 O   0  0  0  0  0  0  0  0  0  0  0  0
   -6.4804   27.4382    8.3149 C   0  0  0  0  0  0  0  0  0  0  0  0
   -7.3538   28.4567    8.9856 C   0  0  0  0  0  0  0  0  0  0  0  0
    3.7145   28.7625    1.1266 C   0  0  0  0  0  0  0  0  0  0  0  0
    3.5956   30.2496    1.2832 C   0  0  0  0  0  0  0  0  0  0  0  0
    2.6012   29.3437    1.9468 C   0  0  0  0  0  0  0  0  0  0  0  0
    4.8923   29.2053    0.3102 C   0  0  0  0  0  0  0  0  0  0  0  0
    6.0056   28.6241   -0.5100 C   0  0  0  0  0  0  0  0  0  0  0  0
    7.2136   28.8979   -1.3561 C   0  0  0  0  0  0  0  0  0  0  0  0
    6.5336   27.2909   -0.9502 C   0  0  0  0  0  0  0  0  0  0  0  0
    6.2290   25.8295   -0.8043 C   0  0  0  0  0  0  0  0  0  0  0  0
    7.4132   25.4970   -1.6629 C   0  0  0  0  0  0  0  0  0  0  0  0
    7.7177   26.9585   -1.8088 C   0  0  0  0  0  0  0  0  0  0  0  0
   -1.9204   18.9321    0.6702 H   0  0  0  0  0  0  0  0  0  0  0  0
   -0.4996   20.0800   -0.4086 H   0  0  0  0  0  0  0  0  0  0  0  0
   -0.3929   17.5736    1.2367 H   0  0  0  0  0  0  0  0  0  0  0  0
    1.0757   17.4514    0.9547 H   0  0  0  0  0  0  0  0  0  0  0  0
    0.9803   19.9914   -0.6387 H   0  0  0  0  0  0  0  0  0  0  0  0
    3.0041   17.8557   -1.2897 H   0  0  0  0  0  0  0  0  0  0  0  0
    4.0071   18.5136    2.0173 H   0  0  0  0  0  0  0  0  0  0  0  0
    2.7792   21.1839    1.4361 H   0  0  0  0  0  0  0  0  0  0  0  0
    5.0502   20.1850   -0.2506 H   0  0  0  0  0  0  0  0  0  0  0  0
    5.4878   21.5982   -0.4983 H   0  0  0  0  0  0  0  0  0  0  0  0
    4.1503   23.5865    0.5671 H   0  0  0  0  0  0  0  0  0  0  0  0
    5.9342   23.0107   -0.7339 H   0  0  0  0  0  0  0  0  0  0  0  0
    6.2013   24.0394   -0.8714 H   0  0  0  0  0  0  0  0  0  0  0  0
    2.9451   24.2360    1.4546 H   0  0  0  0  0  0  0  0  0  0  0  0
    3.9165   24.2068    0.7622 H   0  0  0  0  0  0  0  0  0  0  0  0
    2.3332   24.8645    1.9204 H   0  0  0  0  0  0  0  0  0  0  0  0
    2.1499   28.5215    2.2279 H   0  0  0  0  0  0  0  0  0  0  0  0
    0.1185   25.4108    3.5224 H   0  0  0  0  0  0  0  0  0  0  0  0
    0.3007   26.5160    3.4486 H   0  0  0  0  0  0  0  0  0  0  0  0
    2.0103   28.7151    2.3344 H   0  0  0  0  0  0  0  0  0  0  0  0
   -0.5673   26.7594    4.0755 H   0  0  0  0  0  0  0  0  0  0  0  0
   -1.2240   29.6233    4.6816 H   0  0  0  0  0  0  0  0  0  0  0  0
   -2.1431   26.4758    4.4042 H   0  0  0  0  0  0  0  0  0  0  0  0
   -2.0039   29.0212    5.9858 H   0  0  0  0  0  0  0  0  0  0  0  0
   -3.7566   28.7175    6.0484 H   0  0  0  0  0  0  0  0  0  0  0  0
   -2.7462   25.8937    5.9744 H   0  0  0  0  0  0  0  0  0  0  0  0
   -4.7546   28.2944    7.1351 H   0  0  0  0  0  0  0  0  0  0  0  0
   -4.1037   25.4309    6.5206 H   0  0  0  0  0  0  0  0  0  0  0  0
   -5.6283   28.5380    7.7544 H   0  0  0  0  0  0  0  0  0  0  0  0
   -7.3325   26.3384    8.8755 H   0  0  0  0  0  0  0  0  0  0  0  0
   -8.2272   29.4752    9.6563 H   0  0  0  0  0  0  0  0  0  0  0  0
   -8.3217   27.3759    9.3665 H   0  0  0  0  0  0  0  0  0  0  0  0
   -6.3859   29.5375    8.6048 H   0  0  0  0  0  0  0  0  0  0  0  0
    4.7246   30.8637    0.5098 H   0  0  0  0  0  0  0  0  0  0  0  0
    3.0677   31.5828    1.7234 H   0  0  0  0  0  0  0  0  0  0  0  0
    1.7278   30.3623    2.6174 H   0  0  0  0  0  0  0  0  0  0  0  0
    1.9099   28.0840    2.3775 H   0  0  0  0  0  0  0  0  0  0  0  0
    5.1345   30.6823    0.2094 H   0  0  0  0  0  0  0  0  0  0  0  0
    6.1706   30.1144   -0.5552 H   0  0  0  0  0  0  0  0  0  0  0  0
    8.4216   29.1715   -2.2023 H   0  0  0  0  0  0  0  0  0  0  0  0
    7.0187   30.3718   -1.1578 H   0  0  0  0  0  0  0  0  0  0  0  0
    7.6951   27.5339   -1.7534 H   0  0  0  0  0  0  0  0  0  0  0  0
    6.4605   25.7929   -0.9708 H   0  0  0  0  0  0  0  0  0  0  0  0
    5.1639   26.5288   -0.0128 H   0  0  0  0  0  0  0  0  0  0  0  0
    8.5974   25.1646   -2.5215 H   0  0  0  0  0  0  0  0  0  0  0  0
    7.1087   24.0355   -1.5171 H   0  0  0  0  0  0  0  0  0  0  0  0
    8.7705   27.7569   -2.5190 H   0  0  0  0  0  0  0  0  0  0  0  0
  1  2  1  0
  2  3  1  0
  3  4  1  0
  4  5  1  0
  5  6  1  0
  6  7  1  0
  6  8  1  0
  8  9  1  0
  9 10  1  0
 10 11  1  0
 11 12  1  0
 12 13  1  0
 13 14  1  0
 13 15  1  0
 15 16  1  0
 16 17  1  0
 17 18  1  0
 18 19  1  0
 19 20  1  0
 20 21  1  0
 21 22  1  0
 22 23  1  0
 12 24  1  0
 24 25  1  0
 25 26  1  0
 24 27  1  0
 27 28  1  0
 28 29  1  0
 28 30  1  0
 30 31  1  0
 31 32  1  0
 32 33  1  0
 31  9  1  0
 13 11  1  0
 26 24  1  0
 33 27  1  0
 33 30  1  0
  1 34  1  0
  1 35  1  0
  1 36  1  0
  2 37  1  0
  2 38  1  0
  3 39  1  0
  4 40  1  0
  5 41  1  0
  5 42  1  0
  6 43  1  0
  8 44  1  0
  8 45  1  0
  9 46  1  0
 10 47  1  0
 10 48  1  0
 11 49  1  0
 12 50  1  0
 14 51  1  0
 15 52  1  0
 15 53  1  0
 17 54  1  0
 17 55  1  0
 18 56  1  0
 18 57  1  0
 19 58  1  0
 19 59  1  0
 20 60  1  0
 20 61  1  0
 22 62  1  0
 22 63  1  0
 23 64  1  0
 23 65  1  0
 23 66  1  0
 25 67  1  0
 25 68  1  0
 26 69  1  0
 26 70  1  0
 27 71  1  0
 28 72  1  0
 29 73  1  0
 29 74  1  0
 29 75  1  0
 30 76  1  0
 31 77  1  0
 32 78  1  0
 32 79  1  0
 33 80  1  0
M  END
