
     RDKit          2D

 30 35  0  0  0  0  0  0  0  0999 V2000
   -3.0236   27.5539    7.7342 C   0  0  0  0  0  0  0  0  0  0  0  0
   -2.0979   27.1077    6.6413 C   0  0  0  0  0  0  0  0  0  0  0  0
   -2.4436   26.5540    5.2909 C   0  0  0  0  0  0  0  0  0  0  0  0
   -3.8003   26.3096    4.6996 C   0  0  0  0  0  0  0  0  0  0  0  0
   -5.1464   26.5587    5.3127 C   0  0  0  0  0  0  0  0  0  0  0  0
   -5.4682   27.1136    6.6687 C   0  0  0  0  0  0  0  0  0  0  0  0
   -4.5235   27.5565    7.7463 C   0  0  0  0  0  0  0  0  0  0  0  0
   -6.0186   27.5081    7.6340 C   0  0  0  0  0  0  0  0  0  0  0  0
   -6.3642   26.9544    6.2834 O   0  0  0  0  0  0  0  0  0  0  0  0
   -3.9246   25.7428    3.3163 C   0  0  0  0  0  0  0  0  0  0  0  0
   -3.2849   25.2294    2.0605 C   0  0  0  0  0  0  0  0  0  0  0  0
   -2.0525   24.9070    1.2686 C   0  0  0  0  0  0  0  0  0  0  0  0
   -1.9281   25.4738    2.6519 C   0  0  0  0  0  0  0  0  0  0  0  0
   -2.5679   25.9872    3.9077 C   0  0  0  0  0  0  0  0  0  0  0  0
   -1.7550   27.8590    8.4741 H   0  0  0  0  0  0  0  0  0  0  0  0
   -3.3454   28.1088    9.0900 H   0  0  0  0  0  0  0  0  0  0  0  0
   -0.7518   26.8587    6.0282 H   0  0  0  0  0  0  0  0  0  0  0  0
   -1.0182   27.5039    7.6043 H   0  0  0  0  0  0  0  0  0  0  0  0
   -0.9622   26.4667    5.0720 H   0  0  0  0  0  0  0  0  0  0  0  0
   -6.3267   26.2062    4.4569 H   0  0  0  0  0  0  0  0  0  0  0  0
   -6.0974   27.2983    7.1221 H   0  0  0  0  0  0  0  0  0  0  0  0
   -6.9395   27.0007    6.3988 H   0  0  0  0  0  0  0  0  0  0  0  0
   -4.9932   28.0959    9.0648 H   0  0  0  0  0  0  0  0  0  0  0  0
   -6.1669   28.0737    9.0153 H   0  0  0  0  0  0  0  0  0  0  0  0
   -7.5062   27.5786    7.8118 H   0  0  0  0  0  0  0  0  0  0  0  0
   -5.4007   25.6397    3.0703 H   0  0  0  0  0  0  0  0  0  0  0  0
   -4.4297   24.8605    1.1644 H   0  0  0  0  0  0  0  0  0  0  0  0
   -2.6805   24.3898    0.0084 H   0  0  0  0  0  0  0  0  0  0  0  0
   -0.6018   24.7642    0.9143 H   0  0  0  0  0  0  0  0  0  0  0  0
   -0.4521   25.5769    2.8979 H   0  0  0  0  0  0  0  0  0  0  0  0
  1  2  1  0
  2  3  1  0
  3  4  1  0
  4  5  1  0
  5  6  1  0
  6  7  1  0
  7  8  1  0
  8  9  1  0
  4 10  1  0
 10 11  1  0
 11 12  1  0
 12 13  1  0
 13 14  1  0
  7  1  1  0
 14 10  1  0
 14  3  1  0
 14  4  1  0
  9  5  1  0
 13 11  1  0
  1 15  1  0
  1 16  1  0
  2 17  1  0
  2 18  1  0
  3 19  1  0
  5 20  1  0
  6 21  1  0
  6 22  1  0
  7 23  1  0
  8 24  1  0
  8 25  1  0
 10 26  1  0
 11 27  1  0
 12 28  1  0
 12 29  1  0
 13 30  1  0
M  END
