
     RDKit          2D

 57 62  0  0  0  0  0  0  0  0999 V2000
    2.6390   24.4467    1.9003 C   0  0  0  0  0  0  0  0  0  0  0  0
    2.8096   25.7526    1.1822 C   0  0  0  0  0  0  0  0  0  0  0  0
    2.8300   26.3998   -0.1708 O   0  0  0  0  0  0  0  0  0  0  0  0
    3.0005   27.7057   -0.8889 C   0  0  0  0  0  0  0  0  0  0  0  0
    2.8193   27.1498   -2.2703 C   0  0  0  0  0  0  0  0  0  0  0  0
    2.6002   25.7027   -1.9420 O   0  0  0  0  0  0  0  0  0  0  0  0
    3.0750   28.6155   -2.0792 C   0  0  0  0  0  0  0  0  0  0  0  0
    3.2562   29.1714   -0.6978 C   0  0  0  0  0  0  0  0  0  0  0  0
    3.4993   30.2369    0.3295 C   0  0  0  0  0  0  0  0  0  0  0  0
    3.6369   30.4955    1.8007 N   0  0  0  0  0  0  0  0  0  0  0  0
    3.6165   29.8482    3.1536 C   0  0  0  0  0  0  0  0  0  0  0  0
    3.4460   28.5424    3.8717 C   0  0  0  0  0  0  0  0  0  0  0  0
    3.1903   27.0768    3.6806 C   0  0  0  0  0  0  0  0  0  0  0  0
    3.0899   26.0499    4.7695 C   0  0  0  0  0  0  0  0  0  0  0  0
    2.9896   25.0231    5.8583 C   0  0  0  0  0  0  0  0  0  0  0  0
    2.8892   23.9963    6.9472 C   0  0  0  0  0  0  0  0  0  0  0  0
    2.7888   22.9694    8.0360 C   0  0  0  0  0  0  0  0  0  0  0  0
    2.6884   21.9427    9.1248 C   0  0  0  0  0  0  0  0  0  0  0  0
    2.5880   20.9158   10.2136 C   0  0  0  0  0  0  0  0  0  0  0  0
    2.8701   21.7759   11.4097 C   0  0  0  0  0  0  0  0  0  0  0  0
    2.8798   21.1717   12.7826 C   0  0  0  0  0  0  0  0  0  0  0  0
    2.5977   20.3115   11.5865 C   0  0  0  0  0  0  0  0  0  0  0  0
    2.8469   24.9843    3.7421 C   0  0  0  0  0  0  0  0  0  0  0  0
    2.9473   26.0111    2.6533 C   0  0  0  0  0  0  0  0  0  0  0  0
    2.4647   23.2038    2.3976 H   0  0  0  0  0  0  0  0  0  0  0  0
    2.4389   23.7506    0.5868 H   0  0  0  0  0  0  0  0  0  0  0  0
    2.7203   24.6377    2.6699 H   0  0  0  0  0  0  0  0  0  0  0  0
    2.5665   24.6870    0.1548 H   0  0  0  0  0  0  0  0  0  0  0  0
    2.7142   27.0966   -3.7657 H   0  0  0  0  0  0  0  0  0  0  0  0
    2.3647   24.7113   -3.0428 H   0  0  0  0  0  0  0  0  0  0  0  0
    3.1494   29.5253   -3.2694 H   0  0  0  0  0  0  0  0  0  0  0  0
    3.3774   30.2870   -1.6930 H   0  0  0  0  0  0  0  0  0  0  0  0
    3.5514   31.0416   -0.9353 H   0  0  0  0  0  0  0  0  0  0  0  0
    3.7549   31.7026    0.5207 H   0  0  0  0  0  0  0  0  0  0  0  0
    3.8926   31.9611    1.9918 H   0  0  0  0  0  0  0  0  0  0  0  0
    3.8722   31.3139    3.3448 H   0  0  0  0  0  0  0  0  0  0  0  0
    3.7805   30.2825    4.5800 H   0  0  0  0  0  0  0  0  0  0  0  0
    3.6750   29.4749    5.0242 H   0  0  0  0  0  0  0  0  0  0  0  0
    3.4256   27.8951    5.2247 H   0  0  0  0  0  0  0  0  0  0  0  0
    3.2514   27.9242    2.4445 H   0  0  0  0  0  0  0  0  0  0  0  0
    3.3330   27.1155    5.7968 H   0  0  0  0  0  0  0  0  0  0  0  0
    3.4162   23.8429    5.0366 H   0  0  0  0  0  0  0  0  0  0  0  0
    2.5474   26.0860    6.8199 H   0  0  0  0  0  0  0  0  0  0  0  0
    2.4702   25.0632    7.9147 H   0  0  0  0  0  0  0  0  0  0  0  0
    3.3081   22.9293    5.9796 H   0  0  0  0  0  0  0  0  0  0  0  0
    2.4847   21.9149    7.0135 H   0  0  0  0  0  0  0  0  0  0  0  0
    3.0928   24.0240    9.0585 H   0  0  0  0  0  0  0  0  0  0  0  0
    3.0034   22.9950   10.1462 H   0  0  0  0  0  0  0  0  0  0  0  0
    2.3734   20.8903    8.1033 H   0  0  0  0  0  0  0  0  0  0  0  0
    2.2711   19.6990    9.3958 H   0  0  0  0  0  0  0  0  0  0  0  0
    3.1425   23.2404   11.2328 H   0  0  0  0  0  0  0  0  0  0  0  0
    3.1967   22.3886   13.6005 H   0  0  0  0  0  0  0  0  0  0  0  0
    2.7794   20.1450   13.8714 H   0  0  0  0  0  0  0  0  0  0  0  0
    2.3253   18.8471   11.7633 H   0  0  0  0  0  0  0  0  0  0  0  0
    2.6806   24.2082    3.1602 H   0  0  0  0  0  0  0  0  0  0  0  0
    2.7176   23.8352    4.6976 H   0  0  0  0  0  0  0  0  0  0  0  0
    3.1615   26.8185    3.8992 H   0  0  0  0  0  0  0  0  0  0  0  0
  1  2  1  0
  2  3  1  0
  3  4  1  0
  4  5  1  0
  5  6  1  0
  5  7  1  0
  7  8  1  0
  8  9  1  0
  9 10  1  0
 10 11  1  0
 11 12  1  0
 12 13  1  0
 13 14  1  0
 14 15  1  0
 15 16  1  0
 16 17  1  0
 17 18  1  0
 18 19  1  0
 19 20  1  0
 20 21  1  0
 21 22  1  0
 14 23  1  0
 23 24  1  0
 24  2  1  0
  7  4  1  0
 24 13  1  0
  8  4  1  0
 22 19  1  0
 22 20  1  0
  1 25  1  0
  1 26  1  0
  1 27  1  0
  2 28  1  0
  5 29  1  0
  6 30  1  0
  7 31  1  0
  8 32  1  0
  9 33  1  0
  9 34  1  0
 10 35  1  0
 11 36  1  0
 11 37  1  0
 12 38  1  0
 12 39  1  0
 13 40  1  0
 14 41  1  0
 15 42  1  0
 15 43  1  0
 16 44  1  0
 16 45  1  0
 17 46  1  0
 17 47  1  0
 18 48  1  0
 18 49  1  0
 19 50  1  0
 20 51  1  0
 21 52  1  0
 21 53  1  0
 22 54  1  0
 23 55  1  0
 23 56  1  0
 24 57  1  0
M  END
