
     RDKit          2D

 20 22  0  0  0  0  0  0  0  0999 V2000
   15.8894  -22.8252  -13.1371 O   0  0  0  0  0  0  0  0  0  0  0  0
   16.6459  -21.6293  -12.6395 C   0  0  0  0  0  0  0  0  0  0  0  0
   16.5678  -20.3294  -13.3838 N   0  0  0  0  0  0  0  0  0  0  0  0
   17.3243  -19.1335  -12.8862 C   0  0  0  0  0  0  0  0  0  0  0  0
   18.1589  -19.2376  -11.6441 O   0  0  0  0  0  0  0  0  0  0  0  0
   18.2370  -20.5376  -10.8998 C   0  0  0  0  0  0  0  0  0  0  0  0
   17.4805  -21.7334  -11.3974 C   0  0  0  0  0  0  0  0  0  0  0  0
   18.3151  -21.8375  -10.1554 C   0  0  0  0  0  0  0  0  0  0  0  0
   18.1528  -23.2563   -9.6964 C   0  0  0  0  0  0  0  0  0  0  0  0
   19.0603  -22.9840   -8.5336 C   0  0  0  0  0  0  0  0  0  0  0  0
   19.2227  -21.5652   -8.9926 C   0  0  0  0  0  0  0  0  0  0  0  0
   17.2462  -17.8336  -13.6305 H   0  0  0  0  0  0  0  0  0  0  0  0
   17.7734  -21.0298  -11.3220 H   0  0  0  0  0  0  0  0  0  0  0  0
   16.9901  -23.1509  -11.4074 H   0  0  0  0  0  0  0  0  0  0  0  0
   17.9905  -24.6751   -9.2373 H   0  0  0  0  0  0  0  0  0  0  0  0
   17.2323  -23.6996  -10.7946 H   0  0  0  0  0  0  0  0  0  0  0  0
   19.9679  -22.7115   -7.3708 H   0  0  0  0  0  0  0  0  0  0  0  0
   18.8980  -24.4027   -8.0746 H   0  0  0  0  0  0  0  0  0  0  0  0
   19.3850  -20.1464   -9.4516 H   0  0  0  0  0  0  0  0  0  0  0  0
   20.1302  -21.2928   -7.8297 H   0  0  0  0  0  0  0  0  0  0  0  0
  1  2  2  0
  2  3  1  0
  3  4  2  0
  4  5  1  0
  5  6  1  0
  6  7  1  0
  7  8  1  0
  8  9  1  0
  9 10  1  0
 10 11  1  0
  7  2  1  0
 11  8  1  0
  8  6  1  0
  4 12  1  0
  6 13  1  0
  7 14  1  0
  9 15  1  0
  9 16  1  0
 10 17  1  0
 10 18  1  0
 11 19  1  0
 11 20  1  0
M  END
