
     RDKit          2D

 28 28  0  0  0  0  0  0  0  0999 V2000
   16.2236  -21.7209   -9.7449 O   0  0  0  0  0  0  0  0  0  0  0  0
   15.7384  -20.8437   -8.6291 C   0  0  0  0  0  0  0  0  0  0  0  0
   15.5929  -21.4026   -7.2448 C   0  0  0  0  0  0  0  0  0  0  0  0
   16.0706  -22.7378   -7.7336 O   0  0  0  0  0  0  0  0  0  0  0  0
   15.4474  -21.9615   -5.8604 C   0  0  0  0  0  0  0  0  0  0  0  0
   15.3019  -22.5204   -4.4761 C   0  0  0  0  0  0  0  0  0  0  0  0
   14.8698  -21.0939   -4.3072 C   0  0  0  0  0  0  0  0  0  0  0  0
   14.4067  -20.3983   -3.0616 C   0  0  0  0  0  0  0  0  0  0  0  0
   14.2612  -20.9571   -1.6773 C   0  0  0  0  0  0  0  0  0  0  0  0
   14.5429  -22.3498   -1.1966 C   0  0  0  0  0  0  0  0  0  0  0  0
   15.0397  -23.5276   -1.9816 C   0  0  0  0  0  0  0  0  0  0  0  0
   15.3774  -23.6035   -3.4410 C   0  0  0  0  0  0  0  0  0  0  0  0
   15.3986  -19.4075   -8.8977 H   0  0  0  0  0  0  0  0  0  0  0  0
   15.1151  -20.0674   -6.7559 H   0  0  0  0  0  0  0  0  0  0  0  0
   16.4355  -22.9213   -9.1769 H   0  0  0  0  0  0  0  0  0  0  0  0
   15.9221  -23.2976   -6.3500 H   0  0  0  0  0  0  0  0  0  0  0  0
   15.1796  -21.1382   -5.6732 H   0  0  0  0  0  0  0  0  0  0  0  0
   15.7993  -23.5868   -5.4064 H   0  0  0  0  0  0  0  0  0  0  0  0
   14.8551  -20.5156   -4.9779 H   0  0  0  0  0  0  0  0  0  0  0  0
   14.0407  -18.9524   -3.2215 H   0  0  0  0  0  0  0  0  0  0  0  0
   13.8813  -20.7055   -0.2481 H   0  0  0  0  0  0  0  0  0  0  0  0
   13.8292  -19.5306   -1.5084 H   0  0  0  0  0  0  0  0  0  0  0  0
   14.5579  -23.3077   -0.0424 H   0  0  0  0  0  0  0  0  0  0  0  0
   14.1056  -21.8141    0.1345 H   0  0  0  0  0  0  0  0  0  0  0  0
   15.4382  -24.9736   -1.9714 H   0  0  0  0  0  0  0  0  0  0  0  0
   14.9533  -24.2451   -0.6672 H   0  0  0  0  0  0  0  0  0  0  0  0
   15.8594  -24.4488   -4.5825 H   0  0  0  0  0  0  0  0  0  0  0  0
   15.7071  -25.0341   -3.1331 H   0  0  0  0  0  0  0  0  0  0  0  0
  1  2  2  0
  2  3  1  0
  3  4  1  0
  3  5  1  0
  5  6  1  0
  6  7  1  0
  7  8  2  0
  8  9  1  0
  9 10  1  0
 10 11  1  0
 11 12  1  0
 12  6  1  0
  2 13  1  0
  3 14  1  0
  4 15  1  0
  5 16  1  0
  5 17  1  0
  6 18  1  0
  7 19  1  0
  8 20  1  0
  9 21  1  0
  9 22  1  0
 10 23  1  0
 10 24  1  0
 11 25  1  0
 11 26  1  0
 12 27  1  0
 12 28  1  0
M  END
