
     RDKit          2D

 58 67  0  0  0  0  0  0  0  0999 V2000
   -7.2793   27.5279    8.7034 C   0  0  0  0  0  0  0  0  0  0  0  0
   -6.9240   28.9722    8.5084 C   0  0  0  0  0  0  0  0  0  0  0  0
   -8.0939   29.6221    9.1858 O   0  0  0  0  0  0  0  0  0  0  0  0
   -5.6306   28.8239    7.7632 C   0  0  0  0  0  0  0  0  0  0  0  0
   -4.3698   29.1951    7.0402 C   0  0  0  0  0  0  0  0  0  0  0  0
   -3.1091   29.5662    6.3173 C   0  0  0  0  0  0  0  0  0  0  0  0
   -1.8483   29.9373    5.5942 C   0  0  0  0  0  0  0  0  0  0  0  0
   -0.5875   30.3085    4.8712 C   0  0  0  0  0  0  0  0  0  0  0  0
    0.7117   30.3694    4.1241 C   0  0  0  0  0  0  0  0  0  0  0  0
    1.2151   31.8205    3.8439 C   0  0  0  0  0  0  0  0  0  0  0  0
    0.1143   31.0184    4.4721 C   0  0  0  0  0  0  0  0  0  0  0  0
   -1.0352   31.7150    5.1380 C   0  0  0  0  0  0  0  0  0  0  0  0
    0.0657   32.5171    4.5098 C   0  0  0  0  0  0  0  0  0  0  0  0
   -1.5293   28.4840    5.4046 C   0  0  0  0  0  0  0  0  0  0  0  0
   -2.7904   28.1128    6.1269 C   0  0  0  0  0  0  0  0  0  0  0  0
   -3.7972   27.1604    6.7006 C   0  0  0  0  0  0  0  0  0  0  0  0
   -3.7808   25.6605    6.6845 O   0  0  0  0  0  0  0  0  0  0  0  0
   -2.7263   22.2342    6.0639 C   0  0  0  0  0  0  0  0  0  0  0  0
   -1.7040   23.1644    5.4812 C   0  0  0  0  0  0  0  0  0  0  0  0
   -0.8712   24.3189    5.0083 C   0  0  0  0  0  0  0  0  0  0  0  0
   -1.5644   25.5865    5.4118 C   0  0  0  0  0  0  0  0  0  0  0  0
   -2.8255   25.2153    6.1341 C   0  0  0  0  0  0  0  0  0  0  0  0
   -2.9118   23.7184    6.1770 C   0  0  0  0  0  0  0  0  0  0  0  0
   -2.4713   26.6595    5.9372 C   0  0  0  0  0  0  0  0  0  0  0  0
   -1.2101   27.0307    5.2149 C   0  0  0  0  0  0  0  0  0  0  0  0
   -6.1623   30.1907    8.0780 C   0  0  0  0  0  0  0  0  0  0  0  0
   -7.0678   31.2638    8.6060 O   0  0  0  0  0  0  0  0  0  0  0  0
   -5.0862   31.0365    7.4644 O   0  0  0  0  0  0  0  0  0  0  0  0
   -7.6346   26.0838    8.8984 H   0  0  0  0  0  0  0  0  0  0  0  0
   -8.5163   27.9330    9.4489 H   0  0  0  0  0  0  0  0  0  0  0  0
   -6.3198   27.0598    8.1233 H   0  0  0  0  0  0  0  0  0  0  0  0
   -8.1878   31.1177    9.2495 H   0  0  0  0  0  0  0  0  0  0  0  0
   -5.5546   27.6123    7.7116 H   0  0  0  0  0  0  0  0  0  0  0  0
   -4.5266   27.7052    7.1177 H   0  0  0  0  0  0  0  0  0  0  0  0
   -4.3715   30.5450    7.0527 H   0  0  0  0  0  0  0  0  0  0  0  0
   -3.1064   28.7690    6.3129 H   0  0  0  0  0  0  0  0  0  0  0  0
   -3.4287   31.0196    6.5060 H   0  0  0  0  0  0  0  0  0  0  0  0
   -2.3187   31.3346    5.8706 H   0  0  0  0  0  0  0  0  0  0  0  0
   -0.2480   28.8619    4.6664 H   0  0  0  0  0  0  0  0  0  0  0  0
    0.7829   28.8718    4.0733 H   0  0  0  0  0  0  0  0  0  0  0  0
    1.9926   30.1173    3.3854 H   0  0  0  0  0  0  0  0  0  0  0  0
    2.5144   31.8813    3.0967 H   0  0  0  0  0  0  0  0  0  0  0  0
    0.1628   29.5197    4.4343 H   0  0  0  0  0  0  0  0  0  0  0  0
   -2.3307   31.8373    5.8842 H   0  0  0  0  0  0  0  0  0  0  0  0
    0.0172   34.0158    4.5475 H   0  0  0  0  0  0  0  0  0  0  0  0
   -0.2284   28.4924    4.6579 H   0  0  0  0  0  0  0  0  0  0  0  0
   -3.9807   28.7151    6.8129 H   0  0  0  0  0  0  0  0  0  0  0  0
   -4.8555   28.0299    7.3120 H   0  0  0  0  0  0  0  0  0  0  0  0
   -5.0151   26.6300    7.3974 H   0  0  0  0  0  0  0  0  0  0  0  0
   -3.2094   20.8403    6.3350 H   0  0  0  0  0  0  0  0  0  0  0  0
   -0.7971   22.0913    4.9558 H   0  0  0  0  0  0  0  0  0  0  0  0
    0.0357   23.2459    4.4829 H   0  0  0  0  0  0  0  0  0  0  0  0
    0.1511   25.2491    4.4256 H   0  0  0  0  0  0  0  0  0  0  0  0
   -4.0158   25.8176    6.8201 H   0  0  0  0  0  0  0  0  0  0  0  0
   -4.2117   23.6575    6.9229 H   0  0  0  0  0  0  0  0  0  0  0  0
    0.0906   27.0130    4.4681 H   0  0  0  0  0  0  0  0  0  0  0  0
   -6.7124   32.7080    8.4110 H   0  0  0  0  0  0  0  0  0  0  0  0
   -5.1800   32.5322    7.5282 H   0  0  0  0  0  0  0  0  0  0  0  0
  1  2  1  0
  2  3  1  0
  2  4  1  0
  4  5  1  0
  5  6  1  0
  6  7  1  0
  7  8  1  0
  8  9  1  0
  9 10  1  0
 10 11  1  0
 11 12  1  0
 12 13  1  0
  7 14  1  0
 14 15  1  0
 15 16  1  0
 16 17  1  0
 17 18  1  0
 18 19  1  0
 19 20  1  0
 20 21  1  0
 21 22  1  0
 22 23  1  0
 22 24  1  0
 24 25  1  0
  4 26  1  0
 26 27  1  0
 26 28  1  0
 26  2  1  0
 12  8  1  0
 25 14  1  0
 13 10  1  0
 24 15  1  0
 13 11  1  0
 23 18  1  0
 23 19  1  0
 24 21  1  0
 25 21  1  0
  1 29  1  0
  1 30  1  0
  1 31  1  0
  3 32  1  0
  4 33  1  0
  5 34  1  0
  5 35  1  0
  6 36  1  0
  6 37  1  0
  7 38  1  0
  8 39  1  0
  9 40  1  0
  9 41  1  0
 10 42  1  0
 11 43  1  0
 12 44  1  0
 13 45  1  0
 14 46  1  0
 15 47  1  0
 16 48  1  0
 16 49  1  0
 18 50  1  0
 19 51  1  0
 20 52  1  0
 20 53  1  0
 22 54  1  0
 23 55  1  0
 25 56  1  0
 27 57  1  0
 28 58  1  0
M  END
