
     RDKit          2D

 22 26  0  0  0  0  0  0  0  0999 V2000
   14.5041  -26.1615   -5.3389 O   0  0  0  0  0  0  0  0  0  0  0  0
   14.2786  -24.9349   -6.1723 C   0  0  0  0  0  0  0  0  0  0  0  0
   14.1359  -25.5630   -7.5269 C   0  0  0  0  0  0  0  0  0  0  0  0
   14.0308  -24.0743   -7.3757 C   0  0  0  0  0  0  0  0  0  0  0  0
   13.7905  -23.6838   -8.8038 Br  0  0  0  0  0  0  0  0  0  0  0  0
   14.0092  -22.7213   -6.7284 C   0  0  0  0  0  0  0  0  0  0  0  0
   14.0736  -21.6672   -5.6631 N   0  0  0  0  0  0  0  0  0  0  0  0
   14.2495  -23.1120   -5.3002 C   0  0  0  0  0  0  0  0  0  0  0  0
   14.4533  -22.9855   -3.8195 C   0  0  0  0  0  0  0  0  0  0  0  0
   14.6571  -22.8592   -2.3388 C   0  0  0  0  0  0  0  0  0  0  0  0
   14.4320  -21.6326   -3.1723 C   0  0  0  0  0  0  0  0  0  0  0  0
   14.6784  -24.2122   -2.9860 C   0  0  0  0  0  0  0  0  0  0  0  0
   14.7079  -26.0351   -3.8581 H   0  0  0  0  0  0  0  0  0  0  0  0
   14.3282  -24.4475   -5.5434 H   0  0  0  0  0  0  0  0  0  0  0  0
   13.9321  -25.6894   -9.0076 H   0  0  0  0  0  0  0  0  0  0  0  0
   14.3117  -27.0077   -7.1640 H   0  0  0  0  0  0  0  0  0  0  0  0
   13.7614  -21.8608   -7.9318 H   0  0  0  0  0  0  0  0  0  0  0  0
   14.0093  -20.2245   -5.2578 H   0  0  0  0  0  0  0  0  0  0  0  0
   14.3195  -23.9059   -5.2843 H   0  0  0  0  0  0  0  0  0  0  0  0
   14.8609  -22.7328   -0.8581 H   0  0  0  0  0  0  0  0  0  0  0  0
   14.2898  -20.1432   -3.2798 H   0  0  0  0  0  0  0  0  0  0  0  0
   14.8206  -25.7015   -2.8785 H   0  0  0  0  0  0  0  0  0  0  0  0
  1  2  1  0
  2  3  1  0
  3  4  1  0
  4  5  1  0
  4  6  1  0
  6  7  1  0
  7  8  1  0
  8  9  1  0
  9 10  1  0
 10 11  1  0
 11 12  1  0
  4  2  1  0
  8  6  1  0
 11  9  1  0
 12  9  1  0
 12 10  1  0
  1 13  1  0
  2 14  1  0
  3 15  1  0
  3 16  1  0
  6 17  1  0
  7 18  1  0
  8 19  1  0
 10 20  1  0
 11 21  1  0
 12 22  1  0
M  END
