
     RDKit          2D

108115  0  0  0  0  0  0  0  0999 V2000
   -0.0298   26.3111    3.8559 C   0  0  0  0  0  0  0  0  0  0  0  0
   -0.9444   27.4854    4.0422 C   0  0  0  0  0  0  0  0  0  0  0  0
   -1.4206   27.8545    5.4159 N   0  0  0  0  0  0  0  0  0  0  0  0
   -0.9823   27.0494    6.6031 C   0  0  0  0  0  0  0  0  0  0  0  0
   -0.1332   26.0659    5.8538 F   0  0  0  0  0  0  0  0  0  0  0  0
   -0.5441   26.2442    7.7905 C   0  0  0  0  0  0  0  0  0  0  0  0
   -0.1058   25.4391    8.9778 N   0  0  0  0  0  0  0  0  0  0  0  0
    0.6752   24.2963    9.5557 C   0  0  0  0  0  0  0  0  0  0  0  0
    1.2463   23.3486   10.5685 S   0  0  0  0  0  0  0  0  0  0  0  0
    2.1507   22.2359   10.1282 C   0  0  0  0  0  0  0  0  0  0  0  0
    3.0552   21.1232    9.6879 C   0  0  0  0  0  0  0  0  0  0  0  0
    4.3911   19.3624    9.6551 C   0  0  0  0  0  0  0  0  0  0  0  0
    4.9336   18.8951    8.3370 C   0  0  0  0  0  0  0  0  0  0  0  0
    4.1970   20.0014    7.6415 C   0  0  0  0  0  0  0  0  0  0  0  0
    4.2645   20.1943    6.1555 C   0  0  0  0  0  0  0  0  0  0  0  0
    3.5933   21.2413    5.3170 C   0  0  0  0  0  0  0  0  0  0  0  0
    4.3486   20.4348    4.3026 C   0  0  0  0  0  0  0  0  0  0  0  0
    2.6888   22.3540    5.7572 C   0  0  0  0  0  0  0  0  0  0  0  0
    2.2322   22.6945    7.1448 C   0  0  0  0  0  0  0  0  0  0  0  0
    2.9179   21.5750    8.2642 C   0  0  0  0  0  0  0  0  0  0  0  0
    3.4604   21.1077    6.9462 C   0  0  0  0  0  0  0  0  0  0  0  0
    3.6545   20.4687    8.9597 C   0  0  0  0  0  0  0  0  0  0  0  0
   -0.1278   25.1874   10.4563 C   0  0  0  0  0  0  0  0  0  0  0  0
   -1.0322   26.3001   10.8966 C   0  0  0  0  0  0  0  0  0  0  0  0
   -1.9367   27.4128   11.3369 C   0  0  0  0  0  0  0  0  0  0  0  0
   -0.7888   25.9308   12.3299 C   0  0  0  0  0  0  0  0  0  0  0  0
   -0.5454   25.5616   13.7632 C   0  0  0  0  0  0  0  0  0  0  0  0
   -0.3020   25.1923   15.1965 C   0  0  0  0  0  0  0  0  0  0  0  0
   -0.0585   24.8230   16.6299 C   0  0  0  0  0  0  0  0  0  0  0  0
   -0.6605   23.4713   16.3838 C   0  0  0  0  0  0  0  0  0  0  0  0
   -0.4171   23.1020   17.8172 C   0  0  0  0  0  0  0  0  0  0  0  0
    0.1849   24.4537   18.0632 C   0  0  0  0  0  0  0  0  0  0  0  0
   -1.2757   26.6694    9.4633 C   0  0  0  0  0  0  0  0  0  0  0  0
   -1.5191   27.0386    8.0300 C   0  0  0  0  0  0  0  0  0  0  0  0
   -1.7625   27.4079    6.5967 C   0  0  0  0  0  0  0  0  0  0  0  0
   -2.8507   27.6182    8.4054 C   0  0  0  0  0  0  0  0  0  0  0  0
   -4.1823   28.1977    8.7809 C   0  0  0  0  0  0  0  0  0  0  0  0
   -5.5139   28.7772    9.1563 C   0  0  0  0  0  0  0  0  0  0  0  0
   -1.3826   28.2905    2.8550 C   0  0  0  0  0  0  0  0  0  0  0  0
   -0.5772   27.4014    1.9547 O   0  0  0  0  0  0  0  0  0  0  0  0
   -1.8209   29.0957    1.6677 C   0  0  0  0  0  0  0  0  0  0  0  0
   -1.1062   28.3579    0.5745 C   0  0  0  0  0  0  0  0  0  0  0  0
   -0.7728   28.1929   -0.8786 C   0  0  0  0  0  0  0  0  0  0  0  0
   -1.6247   29.3825   -1.2092 C   0  0  0  0  0  0  0  0  0  0  0  0
   -1.9581   29.5475    0.2440 C   0  0  0  0  0  0  0  0  0  0  0  0
    0.4464   25.9420    2.4822 H   0  0  0  0  0  0  0  0  0  0  0  0
    0.4084   25.5060    5.0432 H   0  0  0  0  0  0  0  0  0  0  0  0
   -2.3352   29.0288    5.6022 H   0  0  0  0  0  0  0  0  0  0  0  0
   -1.7841   27.9414    7.5041 H   0  0  0  0  0  0  0  0  0  0  0  0
    0.2590   25.3532    6.8899 H   0  0  0  0  0  0  0  0  0  0  0  0
   -1.0146   26.8072    8.1023 H   0  0  0  0  0  0  0  0  0  0  0  0
    1.2798   23.7343    8.3032 H   0  0  0  0  0  0  0  0  0  0  0  0
    2.1974   21.7173   11.5349 H   0  0  0  0  0  0  0  0  0  0  0  0
    2.1040   22.7545    8.7215 H   0  0  0  0  0  0  0  0  0  0  0  0
    3.0811   20.8104   11.1548 H   0  0  0  0  0  0  0  0  0  0  0  0
    4.5283   18.9106   11.0788 H   0  0  0  0  0  0  0  0  0  0  0  0
    5.4761   18.4278    7.0189 H   0  0  0  0  0  0  0  0  0  0  0  0
    5.6701   17.7888    9.0325 H   0  0  0  0  0  0  0  0  0  0  0  0
    5.1389   18.9957    6.3767 H   0  0  0  0  0  0  0  0  0  0  0  0
    4.8143   19.7159    4.8445 H   0  0  0  0  0  0  0  0  0  0  0  0
    3.2583   21.9293    4.0269 H   0  0  0  0  0  0  0  0  0  0  0  0
    5.1040   19.6283    3.2881 H   0  0  0  0  0  0  0  0  0  0  0  0
    3.8309   21.3233    3.2105 H   0  0  0  0  0  0  0  0  0  0  0  0
    4.9546   19.4546    5.2627 H   0  0  0  0  0  0  0  0  0  0  0  0
    2.1728   23.2439    4.6655 H   0  0  0  0  0  0  0  0  0  0  0  0
    1.3199   23.8799    7.2573 H   0  0  0  0  0  0  0  0  0  0  0  0
    3.5935   21.2146    5.4560 H   0  0  0  0  0  0  0  0  0  0  0  0
    2.8771   22.0680    5.9525 H   0  0  0  0  0  0  0  0  0  0  0  0
    3.0262   21.0674   10.1831 H   0  0  0  0  0  0  0  0  0  0  0  0
    0.2679   24.4299   11.6892 H   0  0  0  0  0  0  0  0  0  0  0  0
   -2.8411   28.5255   11.7772 H   0  0  0  0  0  0  0  0  0  0  0  0
   -2.5274   26.7098   12.5230 H   0  0  0  0  0  0  0  0  0  0  0  0
   -1.5665   28.3870   10.2581 H   0  0  0  0  0  0  0  0  0  0  0  0
   -0.3528   24.5170   12.0830 H   0  0  0  0  0  0  0  0  0  0  0  0
   -1.1655   27.2547   12.9264 H   0  0  0  0  0  0  0  0  0  0  0  0
    0.1899   24.3311   13.3213 H   0  0  0  0  0  0  0  0  0  0  0  0
   -1.2807   26.7920   14.2051 H   0  0  0  0  0  0  0  0  0  0  0  0
   -0.8208   26.5314   15.6297 H   0  0  0  0  0  0  0  0  0  0  0  0
    0.1833   23.9082   14.5920 H   0  0  0  0  0  0  0  0  0  0  0  0
    0.5434   26.1747   16.8759 H   0  0  0  0  0  0  0  0  0  0  0  0
   -1.2625   22.1196   16.1378 H   0  0  0  0  0  0  0  0  0  0  0  0
   -0.9755   23.6731   14.9313 H   0  0  0  0  0  0  0  0  0  0  0  0
   -0.1737   22.7328   19.2505 H   0  0  0  0  0  0  0  0  0  0  0  0
   -1.0191   21.7503   17.5711 H   0  0  0  0  0  0  0  0  0  0  0  0
    0.7869   25.8054   18.3092 H   0  0  0  0  0  0  0  0  0  0  0  0
    0.4283   24.0845   19.4965 H   0  0  0  0  0  0  0  0  0  0  0  0
   -2.4227   27.6045    9.7077 H   0  0  0  0  0  0  0  0  0  0  0  0
   -0.2421   25.8885    8.7068 H   0  0  0  0  0  0  0  0  0  0  0  0
   -0.2859   26.5657    7.3189 H   0  0  0  0  0  0  0  0  0  0  0  0
   -2.2230   28.0310    5.3123 H   0  0  0  0  0  0  0  0  0  0  0  0
   -2.7210   28.5590    6.6762 H   0  0  0  0  0  0  0  0  0  0  0  0
   -0.9842   26.5187    5.6728 H   0  0  0  0  0  0  0  0  0  0  0  0
   -2.9145   28.3271    7.0851 H   0  0  0  0  0  0  0  0  0  0  0  0
   -3.2347   28.4462    7.2152 H   0  0  0  0  0  0  0  0  0  0  0  0
   -4.6423   28.0615    7.3597 H   0  0  0  0  0  0  0  0  0  0  0  0
   -3.7223   28.3339   10.2021 H   0  0  0  0  0  0  0  0  0  0  0  0
   -6.8455   29.3567    9.5318 H   0  0  0  0  0  0  0  0  0  0  0  0
   -5.6275   27.7888   10.2790 H   0  0  0  0  0  0  0  0  0  0  0  0
   -5.4003   29.7655    8.0337 H   0  0  0  0  0  0  0  0  0  0  0  0
   -2.1881   29.1798    3.7553 H   0  0  0  0  0  0  0  0  0  0  0  0
   -0.4413   27.5101    0.4648 H   0  0  0  0  0  0  0  0  0  0  0  0
   -2.6878   30.1131    2.3485 H   0  0  0  0  0  0  0  0  0  0  0  0
   -0.2242   27.1577    0.7513 H   0  0  0  0  0  0  0  0  0  0  0  0
   -0.4394   28.0278   -2.3317 H   0  0  0  0  0  0  0  0  0  0  0  0
    0.0790   27.0034   -0.5481 H   0  0  0  0  0  0  0  0  0  0  0  0
   -2.4766   30.5720   -1.5398 H   0  0  0  0  0  0  0  0  0  0  0  0
   -1.2913   29.2174   -2.6623 H   0  0  0  0  0  0  0  0  0  0  0  0
   -2.8672   30.7392    0.3007 H   0  0  0  0  0  0  0  0  0  0  0  0
  1  2  2  3
  2  3  1  0
  3  4  1  0
  4  5  1  0
  4  6  1  0
  6  7  1  0
  7  8  1  0
  8  9  1  0
  9 10  1  0
 10 11  1  0
 11 12  1  0
 12 13  1  0
 13 14  1  0
 14 15  1  0
 15 16  1  0
 16 17  1  0
 16 18  1  0
 18 19  2  0
 19 20  1  0
 20 21  1  0
 20 22  1  0
  8 23  1  0
 23 24  1  0
 24 25  1  0
 24 26  1  0
 26 27  1  0
 27 28  1  0
 28 29  1  0
 29 30  1  0
 30 31  1  0
 31 32  1  0
 24 33  1  0
 33 34  1  0
 34 35  1  0
 34 36  1  0
 36 37  1  0
 37 38  1  0
  2 39  1  0
 39 40  1  0
 39 41  1  0
 41 42  1  0
 42 43  1  0
 43 44  1  0
 44 45  1  0
 23  7  1  0
 32 29  1  0
 45 41  1  0
 20 11  1  0
 45 42  1  0
 22 12  1  0
 21 14  1  0
 22 14  1  0
  1 46  1  0
  1 47  1  0
  3 48  1  0
  4 49  1  0
  6 50  1  0
  6 51  1  0
  8 52  1  0
 10 53  1  0
 10 54  1  0
 11 55  1  0
 12 56  1  0
 13 57  1  0
 13 58  1  0
 15 59  1  0
 15 60  1  0
 16 61  1  0
 17 62  1  0
 17 63  1  0
 17 64  1  0
 18 65  1  0
 19 66  1  0
 21 67  1  0
 21 68  1  0
 22 69  1  0
 23 70  1  0
 25 71  1  0
 25 72  1  0
 25 73  1  0
 26 74  1  0
 26 75  1  0
 27 76  1  0
 27 77  1  0
 28 78  1  0
 28 79  1  0
 29 80  1  0
 30 81  1  0
 30 82  1  0
 31 83  1  0
 31 84  1  0
 32 85  1  0
 32 86  1  0
 33 87  1  0
 33 88  1  0
 34 89  1  0
 35 90  1  0
 35 91  1  0
 35 92  1  0
 36 93  1  0
 36 94  1  0
 37 95  1  0
 37 96  1  0
 38 97  1  0
 38 98  1  0
 38 99  1  0
 39100  1  0
 40101  1  0
 41102  1  0
 42103  1  0
 43104  1  0
 43105  1  0
 44106  1  0
 44107  1  0
 45108  1  0
M  END
