
     RDKit          2D

 37 39  0  0  0  0  0  0  0  0999 V2000
  -10.8518   30.3679   12.2113 C   0  0  0  0  0  0  0  0  0  0  0  0
   -9.5577   30.0349   11.5299 C   0  0  0  0  0  0  0  0  0  0  0  0
   -8.2637   29.7020   10.8484 C   0  0  0  0  0  0  0  0  0  0  0  0
   -6.9695   29.3690   10.1669 O   0  0  0  0  0  0  0  0  0  0  0  0
   -6.9643   28.4745    8.9629 Se  0  0  0  0  0  2  0  0  0  0  0  0
   -5.6703   28.1415    8.2814 C   0  0  0  0  0  0  0  0  0  0  0  0
   -6.5427   27.3401    7.3613 C   0  0  0  0  0  0  0  0  0  0  0  0
   -5.6619   26.6940    6.3334 C   0  0  0  0  0  0  0  0  0  0  0  0
   -4.7010   26.0549    5.3004 C   0  0  0  0  0  0  0  0  0  0  0  0
   -3.2173   26.0928    5.0834 C   0  0  0  0  0  0  0  0  0  0  0  0
   -2.3449   26.8941    6.0035 C   0  0  0  0  0  0  0  0  0  0  0  0
   -2.9562   27.6577    7.1407 C   0  0  0  0  0  0  0  0  0  0  0  0
   -4.2452   27.0960    6.6181 C   0  0  0  0  0  0  0  0  0  0  0  0
   -4.2503   27.9907    7.8222 C   0  0  0  0  0  0  0  0  0  0  0  0
   -3.6484   28.8616    8.8847 C   0  0  0  0  0  0  0  0  0  0  0  0
  -12.1460   30.7009   12.8929 H   0  0  0  0  0  0  0  0  0  0  0  0
  -11.5939   29.5328   11.2103 H   0  0  0  0  0  0  0  0  0  0  0  0
  -10.1098   31.2030   13.2123 H   0  0  0  0  0  0  0  0  0  0  0  0
   -8.9903   31.3542   11.9630 H   0  0  0  0  0  0  0  0  0  0  0  0
  -10.1252   28.7157   11.0968 H   0  0  0  0  0  0  0  0  0  0  0  0
   -9.0049   28.8611    9.8517 H   0  0  0  0  0  0  0  0  0  0  0  0
   -7.5224   30.5429   11.8452 H   0  0  0  0  0  0  0  0  0  0  0  0
   -5.2392   29.0357    9.4061 H   0  0  0  0  0  0  0  0  0  0  0  0
   -7.6476   26.6434    6.6239 H   0  0  0  0  0  0  0  0  0  0  0  0
   -7.6544   27.8406    8.2352 H   0  0  0  0  0  0  0  0  0  0  0  0
   -5.9944   26.2335    5.7740 H   0  0  0  0  0  0  0  0  0  0  0  0
   -4.5919   25.1717    4.0929 H   0  0  0  0  0  0  0  0  0  0  0  0
   -5.4400   25.8191    5.1167 H   0  0  0  0  0  0  0  0  0  0  0  0
   -1.8747   25.8193    4.4731 H   0  0  0  0  0  0  0  0  0  0  0  0
   -3.6235   25.1964    3.9513 H   0  0  0  0  0  0  0  0  0  0  0  0
   -1.0184   27.4179    6.4683 H   0  0  0  0  0  0  0  0  0  0  0  0
   -1.3052   26.3423    5.0737 H   0  0  0  0  0  0  0  0  0  0  0  0
   -1.4766   27.8978    7.1964 H   0  0  0  0  0  0  0  0  0  0  0  0
   -3.3229   26.4724    5.6129 H   0  0  0  0  0  0  0  0  0  0  0  0
   -3.0465   29.7326    9.9473 H   0  0  0  0  0  0  0  0  0  0  0  0
   -4.7434   28.6985    9.8968 H   0  0  0  0  0  0  0  0  0  0  0  0
   -2.4713   29.1330    7.9955 H   0  0  0  0  0  0  0  0  0  0  0  0
  1  2  1  0
  2  3  1  0
  3  4  1  0
  4  5  1  0
  5  6  1  0
  6  7  1  0
  7  8  1  0
  8  9  1  0
  9 10  1  0
 10 11  1  0
 11 12  1  0
 12 13  1  0
 13 14  1  0
 14 15  1  0
 14  6  1  0
 13  8  1  0
 14 12  1  0
  1 16  1  0
  1 17  1  0
  1 18  1  0
  2 19  1  0
  2 20  1  0
  3 21  1  0
  3 22  1  0
  6 23  1  0
  7 24  1  0
  7 25  1  0
  8 26  1  0
  9 27  1  0
  9 28  1  0
 10 29  1  0
 10 30  1  0
 11 31  1  0
 11 32  1  0
 12 33  1  0
 13 34  1  0
 15 35  1  0
 15 36  1  0
 15 37  1  0
M  END
