
     RDKit          2D

 88 94  0  0  0  0  0  0  0  0999 V2000
   -8.3310   35.4182    3.1675 C   0  0  0  0  0  0  0  0  0  0  0  0
   -7.0603   34.6612    3.4173 C   0  0  0  0  0  0  0  0  0  0  0  0
   -5.7896   33.9042    3.6671 C   0  0  0  0  0  0  0  0  0  0  0  0
   -4.5190   33.1472    3.9169 S   0  0  0  0  0  4  0  0  0  0  0  0
   -3.5966   32.0112    4.2463 C   0  0  0  0  0  0  0  0  0  0  0  0
   -2.1127   32.2296    4.2597 O   0  0  0  0  0  0  0  0  0  0  0  0
   -1.5511   33.5841    3.9437 C   0  0  0  0  0  0  0  0  0  0  0  0
   -2.4735   34.7203    3.6143 C   0  0  0  0  0  0  0  0  0  0  0  0
   -1.2925   35.6285    3.4396 C   0  0  0  0  0  0  0  0  0  0  0  0
   -0.3701   34.4923    3.7690 C   0  0  0  0  0  0  0  0  0  0  0  0
    0.5523   33.3563    4.0984 C   0  0  0  0  0  0  0  0  0  0  0  0
    1.4747   32.2201    4.4278 C   0  0  0  0  0  0  0  0  0  0  0  0
    2.3971   31.0840    4.7572 C   0  0  0  0  0  0  0  0  0  0  0  0
    3.3194   29.9480    5.0866 C   0  0  0  0  0  0  0  0  0  0  0  0
    4.2418   28.8118    5.4161 C   0  0  0  0  0  0  0  0  0  0  0  0
    2.1382   29.0412    5.2667 C   0  0  0  0  0  0  0  0  0  0  0  0
    0.9570   28.1344    5.4468 O   0  0  0  0  0  0  0  0  0  0  0  0
    3.5410   31.8346    4.1425 C   0  0  0  0  0  0  0  0  0  0  0  0
    4.9608   31.3591    4.0528 C   0  0  0  0  0  0  0  0  0  0  0  0
    5.7634   32.4231    3.3644 C   0  0  0  0  0  0  0  0  0  0  0  0
    4.8395   33.5562    3.0286 C   0  0  0  0  0  0  0  0  0  0  0  0
    4.7646   34.9139    2.3956 C   0  0  0  0  0  0  0  0  0  0  0  0
    4.3961   36.2649    1.8314 C   0  0  0  0  0  0  0  0  0  0  0  0
    2.9441   36.6047    1.9932 C   0  0  0  0  0  0  0  0  0  0  0  0
    2.0171   35.6350    2.6644 C   0  0  0  0  0  0  0  0  0  0  0  0
    2.5423   34.3254    3.1737 C   0  0  0  0  0  0  0  0  0  0  0  0
    3.3448   35.3894    2.4853 C   0  0  0  0  0  0  0  0  0  0  0  0
    2.0134   33.1090    3.8740 C   0  0  0  0  0  0  0  0  0  0  0  0
    3.4661   33.1924    3.5095 C   0  0  0  0  0  0  0  0  0  0  0  0
       nan       nan       nan C   0  0  0  0  0  0  0  0  0  0  0  0
       nan       nan       nan C   0  0  0  0  0  0  0  0  0  0  0  0
       nan       nan       nan P   0  0  0  0  0  0  0  0  0  0  0  0
       nan       nan       nan C   0  0  0  0  0  0  0  0  0  0  0  0
       nan       nan       nan C   0  0  0  0  0  0  0  0  0  0  0  0
       nan       nan       nan O   0  0  0  0  0  0  0  0  0  0  0  0
       nan       nan       nan O   0  0  0  0  0  0  0  0  0  0  0  0
       nan       nan       nan O   0  0  0  0  0  0  0  0  0  0  0  0
   -3.9575   34.5018    3.6009 N   0  0  0  0  0  0  0  0  0  0  0  0
   -9.6016   36.1751    2.9178 H   0  0  0  0  0  0  0  0  0  0  0  0
   -7.5375   36.6639    2.9057 H   0  0  0  0  0  0  0  0  0  0  0  0
   -9.1245   34.1725    3.4293 H   0  0  0  0  0  0  0  0  0  0  0  0
   -7.8538   33.5052    3.9505 H   0  0  0  0  0  0  0  0  0  0  0  0
   -6.2669   35.8171    2.8842 H   0  0  0  0  0  0  0  0  0  0  0  0
   -5.1561   35.2286    3.3598 H   0  0  0  0  0  0  0  0  0  0  0  0
   -6.5840   32.6628    3.9461 H   0  0  0  0  0  0  0  0  0  0  0  0
   -5.5218   32.0556    4.1462 H   0  0  0  0  0  0  0  0  0  0  0  0
   -4.9198   31.3141    4.3612 H   0  0  0  0  0  0  0  0  0  0  0  0
   -3.6754   30.5580    4.6095 H   0  0  0  0  0  0  0  0  0  0  0  0
   -3.0384   33.7453    3.8343 H   0  0  0  0  0  0  0  0  0  0  0  0
   -3.0588   36.0526    3.2509 H   0  0  0  0  0  0  0  0  0  0  0  0
   -0.1115   36.5366    3.2649 H   0  0  0  0  0  0  0  0  0  0  0  0
   -2.2148   36.7645    3.1102 H   0  0  0  0  0  0  0  0  0  0  0  0
    1.7333   34.2641    3.9226 H   0  0  0  0  0  0  0  0  0  0  0  0
   -0.3705   32.2004    4.3488 H   0  0  0  0  0  0  0  0  0  0  0  0
    2.3975   33.3754    4.1754 H   0  0  0  0  0  0  0  0  0  0  0  0
    0.5518   31.0649    4.6803 H   0  0  0  0  0  0  0  0  0  0  0  0
    1.2530   30.3335    5.3720 H   0  0  0  0  0  0  0  0  0  0  0  0
    4.6042   30.7095    4.9481 H   0  0  0  0  0  0  0  0  0  0  0  0
    5.1642   27.6758    5.7455 H   0  0  0  0  0  0  0  0  0  0  0  0
    3.1819   27.7724    5.6310 H   0  0  0  0  0  0  0  0  0  0  0  0
    5.4228   29.7196    5.2399 H   0  0  0  0  0  0  0  0  0  0  0  0
    2.9098   27.8025    5.6136 H   0  0  0  0  0  0  0  0  0  0  0  0
    0.9573   29.9245    4.9926 H   0  0  0  0  0  0  0  0  0  0  0  0
    1.1652   26.6971    5.8221 H   0  0  0  0  0  0  0  0  0  0  0  0
    4.6032   30.0778    4.7459 H   0  0  0  0  0  0  0  0  0  0  0  0
    6.2702   30.6293    4.1096 H   0  0  0  0  0  0  0  0  0  0  0  0
    6.9048   31.4708    3.5651 H   0  0  0  0  0  0  0  0  0  0  0  0
    6.9234   33.1537    2.7556 H   0  0  0  0  0  0  0  0  0  0  0  0
    6.1388   34.0767    2.4892 H   0  0  0  0  0  0  0  0  0  0  0  0
    6.0127   35.5208    1.8263 H   0  0  0  0  0  0  0  0  0  0  0  0
    4.3725   37.6199    1.1883 H   0  0  0  0  0  0  0  0  0  0  0  0
    5.7952   36.5596    1.3778 H   0  0  0  0  0  0  0  0  0  0  0  0
    1.6590   37.3741    1.9122 H   0  0  0  0  0  0  0  0  0  0  0  0
    3.4248   37.8417    1.2939 H   0  0  0  0  0  0  0  0  0  0  0  0
    0.7558   35.0494    3.2264 H   0  0  0  0  0  0  0  0  0  0  0  0
    1.0540   36.7411    2.3502 H   0  0  0  0  0  0  0  0  0  0  0  0
    2.2364   36.3750    2.2612 H   0  0  0  0  0  0  0  0  0  0  0  0
    3.5259   36.7165    1.8097 H   0  0  0  0  0  0  0  0  0  0  0  0
    0.7653   32.5021    4.4432 H   0  0  0  0  0  0  0  0  0  0  0  0
       nan       nan       nan H   0  0  0  0  0  0  0  0  0  0  0  0
       nan       nan       nan H   0  0  0  0  0  0  0  0  0  0  0  0
       nan       nan       nan H   0  0  0  0  0  0  0  0  0  0  0  0
       nan       nan       nan H   0  0  0  0  0  0  0  0  0  0  0  0
       nan       nan       nan H   0  0  0  0  0  0  0  0  0  0  0  0
       nan       nan       nan H   0  0  0  0  0  0  0  0  0  0  0  0
       nan       nan       nan H   0  0  0  0  0  0  0  0  0  0  0  0
       nan       nan       nan H   0  0  0  0  0  0  0  0  0  0  0  0
   -4.7289   35.7401    3.2527 H   0  0  0  0  0  0  0  0  0  0  0  0
  1  2  1  0
  2  3  1  0
  3  4  1  0
  4  5  1  0
  5  6  1  0
  6  7  1  0
  7  8  1  0
  8  9  1  0
  9 10  1  0
 10 11  1  0
 11 12  1  0
 12 13  1  0
 13 14  1  0
 14 15  1  0
 14 16  1  0
 16 17  1  0
 13 18  1  0
 18 19  1  0
 19 20  1  0
 20 21  1  0
 21 22  1  0
 22 23  1  0
 23 24  1  0
 24 25  1  0
 25 26  1  0
 26 27  1  0
 26 28  1  0
 28 29  1  0
 10 30  1  0
 30 31  1  0
 31 32  2  3
 30 33  1  0
 33 34  1  0
 33 35  1  0
 35 36  1  0
 36 37  1  0
  8 38  1  0
 38  4  1  0
 10  7  1  0
 28 18  1  0
 29 18  1  0
 29 21  1  0
 27 22  1  0
 29 26  1  0
  1 39  1  0
  1 40  1  0
  1 41  1  0
  2 42  1  0
  2 43  1  0
  3 44  1  0
  3 45  1  0
  4 46  1  0
  5 47  1  0
  5 48  1  0
  7 49  1  0
  8 50  1  0
  9 51  1  0
  9 52  1  0
 11 53  1  0
 11 54  1  0
 12 55  1  0
 12 56  1  0
 13 57  1  0
 14 58  1  0
 15 59  1  0
 15 60  1  0
 15 61  1  0
 16 62  1  0
 16 63  1  0
 17 64  1  0
 19 65  1  0
 19 66  1  0
 20 67  1  0
 20 68  1  0
 21 69  1  0
 22 70  1  0
 23 71  1  0
 23 72  1  0
 24 73  1  0
 24 74  1  0
 25 75  1  0
 25 76  1  0
 27 77  1  0
 27 78  1  0
 28 79  1  0
 30 80  1  0
 31 81  1  0
 32 82  1  0
 33 83  1  0
 34 84  1  0
 34 85  1  0
 34 86  1  0
 37 87  1  0
 38 88  1  0
M  END
