
     RDKit          2D

103110  0  0  0  0  0  0  0  0999 V2000
  -10.5118   10.2878    7.8496 C   0  0  0  0  0  0  0  0  0  0  0  0
  -10.0119   11.6993    7.9378 C   0  0  0  0  0  0  0  0  0  0  0  0
   -9.5119   13.1108    8.0260 C   0  0  0  0  0  0  0  0  0  0  0  0
   -9.0119   14.5222    8.1142 O   0  0  0  0  0  0  0  0  0  0  0  0
   -9.6157   15.4712    9.1066 N   0  0  0  0  0  0  0  0  0  0  0  0
  -10.6975   15.3771   10.1416 C   0  0  0  0  0  0  0  0  0  0  0  0
  -10.9252   13.9410    9.7729 C   0  0  0  0  0  0  0  0  0  0  0  0
  -11.1530   12.5049    9.4043 C   0  0  0  0  0  0  0  0  0  0  0  0
  -11.9493   13.8237   10.8628 C   0  0  0  0  0  0  0  0  0  0  0  0
  -12.9732   13.7064   11.9525 C   0  0  0  0  0  0  0  0  0  0  0  0
  -12.2205   12.4059   10.4552 C   0  0  0  0  0  0  0  0  0  0  0  0
  -12.4917   10.9880   10.0477 C   0  0  0  0  0  0  0  0  0  0  0  0
  -12.7630    9.5701    9.6402 C   0  0  0  0  0  0  0  0  0  0  0  0
  -12.8154    8.2076    9.0150 C   0  0  0  0  0  0  0  0  0  0  0  0
  -13.8378    7.3971    9.7550 C   0  0  0  0  0  0  0  0  0  0  0  0
  -14.4173    8.2587   10.8376 C   0  0  0  0  0  0  0  0  0  0  0  0
  -13.7530    9.6016   10.7666 C   0  0  0  0  0  0  0  0  0  0  0  0
  -14.6431    9.9282   11.9291 O   0  0  0  0  0  0  0  0  0  0  0  0
  -13.2444   12.2885   11.5451 C   0  0  0  0  0  0  0  0  0  0  0  0
  -14.2683   12.1711   12.6349 C   0  0  0  0  0  0  0  0  0  0  0  0
  -12.9723   13.7060   11.9533 C   0  0  0  0  0  0  0  0  0  0  0  0
  -13.0668   14.9979   12.7097 C   0  0  0  0  0  0  0  0  0  0  0  0
  -13.9334   13.8366   13.0976 C   0  0  0  0  0  0  0  0  0  0  0  0
  -10.4697   16.8131   10.5102 C   0  0  0  0  0  0  0  0  0  0  0  0
   -9.3880   16.9072    9.4753 C   0  0  0  0  0  0  0  0  0  0  0  0
   -8.3063   17.0013    8.4403 O   0  0  0  0  0  0  0  0  0  0  0  0
   -9.1602   18.3433    9.8439 C   0  0  0  0  0  0  0  0  0  0  0  0
   -8.0548   18.6851    8.8892 O   0  0  0  0  0  0  0  0  0  0  0  0
  -10.1865   18.5002   10.9265 C   0  0  0  0  0  0  0  0  0  0  0  0
  -11.0446   17.3252   11.2911 Br  0  0  0  0  0  0  0  0  0  0  0  0
  -10.8691   19.3514   11.9558 C   0  0  0  0  0  0  0  0  0  0  0  0
   -9.9990   20.5118   11.5733 O   0  0  0  0  0  0  0  0  0  0  0  0
   -9.3163   19.6606   10.5440 C   0  0  0  0  0  0  0  0  0  0  0  0
   -8.2992   20.5612    9.9081 O   0  0  0  0  0  0  0  0  0  0  0  0
   -8.1667   21.9836   10.3656 C   0  0  0  0  0  0  0  0  0  0  0  0
   -7.0718   22.5631    9.5197 C   0  0  0  0  0  0  0  0  0  0  0  0
   -7.7545   23.4142   10.5490 C   0  0  0  0  0  0  0  0  0  0  0  0
   -8.7808   23.5710   11.6317 C   0  0  0  0  0  0  0  0  0  0  0  0
       nan       nan       nan C   0  0  0  0  0  0  0  0  0  0  0  0
   -9.1930   22.1404   11.4482 C   0  0  0  0  0  0  0  0  0  0  0  0
  -10.2909   21.9217   12.4465 C   0  0  0  0  0  0  0  0  0  0  0  0
   -9.8567   20.7992   11.5512 C   0  0  0  0  0  0  0  0  0  0  0  0
  -10.7829   19.7174   12.0219 C   0  0  0  0  0  0  0  0  0  0  0  0
   -9.1007   20.0525   10.4925 O   0  0  0  0  0  0  0  0  0  0  0  0
   -9.4218   18.6138   10.2153 C   0  0  0  0  0  0  0  0  0  0  0  0
  -11.1282    8.9211    7.8955 H   0  0  0  0  0  0  0  0  0  0  0  0
  -11.4977   10.5686    8.9446 H   0  0  0  0  0  0  0  0  0  0  0  0
   -9.5941    9.8371    6.7519 H   0  0  0  0  0  0  0  0  0  0  0  0
  -11.0509   11.8058    9.0144 H   0  0  0  0  0  0  0  0  0  0  0  0
   -9.0264   11.4187    6.8423 H   0  0  0  0  0  0  0  0  0  0  0  0
  -10.4992   13.3921    9.1197 H   0  0  0  0  0  0  0  0  0  0  0  0
   -8.5246   12.8294    6.9323 H   0  0  0  0  0  0  0  0  0  0  0  0
  -11.7433   15.4588   11.2137 H   0  0  0  0  0  0  0  0  0  0  0  0
   -9.9012   14.0583    8.6831 H   0  0  0  0  0  0  0  0  0  0  0  0
  -11.3807   11.0689    9.0357 H   0  0  0  0  0  0  0  0  0  0  0  0
  -12.2576   12.0662   10.3193 H   0  0  0  0  0  0  0  0  0  0  0  0
  -10.0713   12.5991    8.3695 H   0  0  0  0  0  0  0  0  0  0  0  0
  -11.8048   15.2167   11.4000 H   0  0  0  0  0  0  0  0  0  0  0  0
  -13.8321   14.1052   13.1159 H   0  0  0  0  0  0  0  0  0  0  0  0
  -13.4841   12.3022   11.8210 H   0  0  0  0  0  0  0  0  0  0  0  0
  -12.4624   15.1106   12.0840 H   0  0  0  0  0  0  0  0  0  0  0  0
  -11.2373   12.3495    9.3238 H   0  0  0  0  0  0  0  0  0  0  0  0
  -13.1142   10.5428   11.3379 H   0  0  0  0  0  0  0  0  0  0  0  0
  -11.8979   11.2623    8.6978 H   0  0  0  0  0  0  0  0  0  0  0  0
  -11.7439    9.6627    8.5434 H   0  0  0  0  0  0  0  0  0  0  0  0
  -11.7585    8.5933    8.0230 H   0  0  0  0  0  0  0  0  0  0  0  0
  -12.6467    6.9601    8.1994 H   0  0  0  0  0  0  0  0  0  0  0  0
  -13.4554    6.3189    8.7848 H   0  0  0  0  0  0  0  0  0  0  0  0
  -14.7803    6.3611   10.2923 H   0  0  0  0  0  0  0  0  0  0  0  0
  -15.2386    7.0426   11.1485 H   0  0  0  0  0  0  0  0  0  0  0  0
  -15.2539    8.7046   12.0000 H   0  0  0  0  0  0  0  0  0  0  0  0
  -14.5972    8.4122   11.1165 H   0  0  0  0  0  0  0  0  0  0  0  0
  -14.7200   11.2306   12.6691 H   0  0  0  0  0  0  0  0  0  0  0  0
  -13.6392   10.8673   11.2727 H   0  0  0  0  0  0  0  0  0  0  0  0
  -15.2923   12.0538   13.7248 H   0  0  0  0  0  0  0  0  0  0  0  0
  -14.3825   13.4529   13.4057 H   0  0  0  0  0  0  0  0  0  0  0  0
  -14.7789   10.7669   12.5035 H   0  0  0  0  0  0  0  0  0  0  0  0
  -11.9263   14.3899   11.1238 H   0  0  0  0  0  0  0  0  0  0  0  0
  -12.0440   15.8082   11.9700 H   0  0  0  0  0  0  0  0  0  0  0  0
  -13.5166   16.0083   13.7231 H   0  0  0  0  0  0  0  0  0  0  0  0
  -14.6841   14.4437   14.2455 H   0  0  0  0  0  0  0  0  0  0  0  0
  -14.7316   12.5959   13.3686 H   0  0  0  0  0  0  0  0  0  0  0  0
  -11.5514   16.7191   11.5450 H   0  0  0  0  0  0  0  0  0  0  0  0
  -10.5104   18.1838   11.1182 H   0  0  0  0  0  0  0  0  0  0  0  0
   -7.9925   15.8180    7.5736 H   0  0  0  0  0  0  0  0  0  0  0  0
   -7.6565   17.5319    8.0168 H   0  0  0  0  0  0  0  0  0  0  0  0
  -11.5518   20.2026   12.9851 H   0  0  0  0  0  0  0  0  0  0  0  0
  -11.7392   18.1910   12.3383 H   0  0  0  0  0  0  0  0  0  0  0  0
   -6.4837   21.5954    8.5359 H   0  0  0  0  0  0  0  0  0  0  0  0
   -6.3481   23.8647    9.3407 H   0  0  0  0  0  0  0  0  0  0  0  0
   -7.0908   24.7554   10.4461 H   0  0  0  0  0  0  0  0  0  0  0  0
   -8.3687   25.0016   11.8152 H   0  0  0  0  0  0  0  0  0  0  0  0
       nan       nan       nan H   0  0  0  0  0  0  0  0  0  0  0  0
       nan       nan       nan H   0  0  0  0  0  0  0  0  0  0  0  0
       nan       nan       nan H   0  0  0  0  0  0  0  0  0  0  0  0
  -10.6166   23.1320   13.2704 H   0  0  0  0  0  0  0  0  0  0  0  0
  -11.3906   21.3886   13.3163 H   0  0  0  0  0  0  0  0  0  0  0  0
  -11.7092   18.6355   12.4926 H   0  0  0  0  0  0  0  0  0  0  0  0
   -9.9075   18.5554   11.6566 H   0  0  0  0  0  0  0  0  0  0  0  0
  -11.8842   20.6156   12.5020 H   0  0  0  0  0  0  0  0  0  0  0  0
   -9.7430   17.1750    9.9382 H   0  0  0  0  0  0  0  0  0  0  0  0
   -8.4734   18.2353    9.1166 H   0  0  0  0  0  0  0  0  0  0  0  0
  -10.5107   18.4694   11.2369 H   0  0  0  0  0  0  0  0  0  0  0  0
  1  2  1  0
  2  3  1  0
  3  4  1  0
  4  5  1  0
  5  6  1  0
  6  7  1  0
  7  8  1  0
  7  9  1  0
  9 10  1  0
  9 11  1  0
 11 12  1  0
 12 13  1  0
 13 14  1  0
 14 15  1  0
 15 16  1  0
 16 17  1  0
 17 18  1  0
 11 19  1  0
 19 20  1  0
 19 21  1  0
 21 22  1  0
 22 23  1  0
  6 24  1  0
 24 25  1  0
 25 26  1  0
 25 27  1  0
 27 28  1  0
 27 29  1  0
 29 30  1  0
 29 31  1  0
 31 32  1  0
 32 33  1  0
 33 34  1  0
 34 35  1  0
 35 36  1  0
 36 37  1  0
 37 38  1  0
 38 39  1  0
 38 40  1  0
 40 41  1  0
 41 42  1  0
 42 43  1  0
 42 44  1  0
 44 45  1  0
 25  5  1  0
 33 27  1  0
 37 35  1  0
 42 40  1  0
 17 13  1  0
 23 21  1  0
 33 29  1  0
 40 35  1  0
  1 46  1  0
  1 47  1  0
  1 48  1  0
  2 49  1  0
  2 50  1  0
  3 51  1  0
  3 52  1  0
  6 53  1  0
  7 54  1  0
  8 55  1  0
  8 56  1  0
  8 57  1  0
  9 58  1  0
 10 59  1  0
 10 60  1  0
 10 61  1  0
 11 62  1  0
 12 63  1  0
 12 64  1  0
 13 65  1  0
 14 66  1  0
 14 67  1  0
 15 68  1  0
 15 69  1  0
 16 70  1  0
 16 71  1  0
 17 72  1  0
 18 73  1  0
 19 74  1  0
 20 75  1  0
 20 76  1  0
 20 77  1  0
 21 78  1  0
 22 79  1  0
 22 80  1  0
 23 81  1  0
 23 82  1  0
 24 83  1  0
 24 84  1  0
 26 85  1  0
 28 86  1  0
 31 87  1  0
 31 88  1  0
 36 89  1  0
 36 90  1  0
 37 91  1  0
 38 92  1  0
 39 93  1  0
 39 94  1  0
 39 95  1  0
 41 96  1  0
 41 97  1  0
 43 98  1  0
 43 99  1  0
 43100  1  0
 45101  1  0
 45102  1  0
 45103  1  0
M  END
