
     RDKit          2D

 55 57  0  0  0  0  0  0  0  0999 V2000
   13.7426  -24.6632   -3.4412 C   0  0  0  0  0  0  0  0  0  0  0  0
   13.4883  -23.9311   -4.7255 C   0  0  0  0  0  0  0  0  0  0  0  0
   13.2340  -23.1990   -6.0097 P   0  0  0  0  0  0  0  0  0  0  0  0
   11.8468  -22.7409   -6.3498 C   0  0  0  0  0  0  0  0  0  0  0  0
   10.4596  -22.2827   -6.6899 O   0  0  0  0  0  0  0  0  0  0  0  0
   14.3669  -22.9250   -6.9539 O   0  0  0  0  0  0  0  0  0  0  0  0
   15.7542  -23.3832   -6.6138 C   0  0  0  0  0  0  0  0  0  0  0  0
   16.3189  -22.4083   -7.6041 C   0  0  0  0  0  0  0  0  0  0  0  0
   16.8836  -21.4335   -8.5944 C   0  0  0  0  0  0  0  0  0  0  0  0
   17.4483  -20.4586   -9.5847 C   0  0  0  0  0  0  0  0  0  0  0  0
   18.2504  -19.2843   -9.1074 N   0  0  0  0  0  0  0  0  0  0  0  0
   18.1368  -22.2525   -8.6862 C   0  0  0  0  0  0  0  0  0  0  0  0
   19.5074  -22.6891   -9.1113 C   0  0  0  0  0  0  0  0  0  0  0  0
   18.9102  -21.4354   -9.6782 C   0  0  0  0  0  0  0  0  0  0  0  0
   20.0255  -21.0011  -10.5824 C   0  0  0  0  0  0  0  0  0  0  0  0
   20.7988  -20.1839  -11.5744 C   0  0  0  0  0  0  0  0  0  0  0  0
   19.4282  -19.7475  -11.1492 C   0  0  0  0  0  0  0  0  0  0  0  0
   19.2902  -18.4941  -11.9617 C   0  0  0  0  0  0  0  0  0  0  0  0
   15.1894  -24.3580   -5.6235 C   0  0  0  0  0  0  0  0  0  0  0  0
   14.6247  -25.3329   -4.6332 C   0  0  0  0  0  0  0  0  0  0  0  0
   14.5227  -26.5290   -3.7339 N   0  0  0  0  0  0  0  0  0  0  0  0
   15.7610  -26.3086   -4.5512 C   0  0  0  0  0  0  0  0  0  0  0  0
   16.5641  -27.5052   -4.1352 C   0  0  0  0  0  0  0  0  0  0  0  0
   16.4460  -28.7905   -4.8997 C   0  0  0  0  0  0  0  0  0  0  0  0
   17.4853  -27.4168   -2.9547 P   0  0  0  0  0  0  0  0  0  0  0  0
   16.9797  -27.7491   -1.5822 P   0  0  0  0  0  0  0  0  0  0  0  0
   13.8177  -25.3769   -2.1240 H   0  0  0  0  0  0  0  0  0  0  0  0
   12.3486  -22.1863   -7.6500 H   0  0  0  0  0  0  0  0  0  0  0  0
   11.3449  -23.2954   -5.0496 H   0  0  0  0  0  0  0  0  0  0  0  0
    9.3179  -22.6016   -5.7707 H   0  0  0  0  0  0  0  0  0  0  0  0
   17.1414  -23.8413   -6.2737 H   0  0  0  0  0  0  0  0  0  0  0  0
   15.0657  -21.5890   -7.5122 H   0  0  0  0  0  0  0  0  0  0  0  0
   17.1754  -23.0877   -7.5827 H   0  0  0  0  0  0  0  0  0  0  0  0
   15.6304  -20.6143   -8.5027 H   0  0  0  0  0  0  0  0  0  0  0  0
   17.3083  -20.5763  -10.4514 H   0  0  0  0  0  0  0  0  0  0  0  0
   18.8841  -18.2200   -9.9535 H   0  0  0  0  0  0  0  0  0  0  0  0
   18.0106  -23.1064   -8.0147 H   0  0  0  0  0  0  0  0  0  0  0  0
   19.6454  -23.9424   -8.2988 H   0  0  0  0  0  0  0  0  0  0  0  0
   20.8659  -22.8455   -9.7280 H   0  0  0  0  0  0  0  0  0  0  0  0
   18.4529  -20.8124   -9.8739 H   0  0  0  0  0  0  0  0  0  0  0  0
   21.1197  -22.0185  -10.4488 H   0  0  0  0  0  0  0  0  0  0  0  0
   22.0521  -21.0031  -11.6660 H   0  0  0  0  0  0  0  0  0  0  0  0
   21.2968  -19.1681  -12.5593 H   0  0  0  0  0  0  0  0  0  0  0  0
   18.0698  -19.5910  -10.5325 H   0  0  0  0  0  0  0  0  0  0  0  0
   19.1523  -17.2408  -12.7742 H   0  0  0  0  0  0  0  0  0  0  0  0
   17.9229  -18.1120  -11.4777 H   0  0  0  0  0  0  0  0  0  0  0  0
   20.6240  -18.5707  -12.6438 H   0  0  0  0  0  0  0  0  0  0  0  0
   16.6366  -24.5927   -5.3062 H   0  0  0  0  0  0  0  0  0  0  0  0
   13.7054  -24.2483   -5.8121 H   0  0  0  0  0  0  0  0  0  0  0  0
   13.2499  -24.9814   -4.1468 H   0  0  0  0  0  0  0  0  0  0  0  0
   13.8932  -27.4597   -2.7401 H   0  0  0  0  0  0  0  0  0  0  0  0
   16.8332  -25.8118   -5.4751 H   0  0  0  0  0  0  0  0  0  0  0  0
   17.2490  -29.9871   -4.4836 H   0  0  0  0  0  0  0  0  0  0  0  0
   15.5248  -28.8790   -6.0802 H   0  0  0  0  0  0  0  0  0  0  0  0
   17.9009  -27.6607   -0.4017 H   0  0  0  0  0  0  0  0  0  0  0  0
  1  2  3  0
  2  3  1  0
  3  4  1  0
  4  5  1  0
  3  6  1  0
  6  7  1  0
  7  8  1  0
  8  9  1  0
  9 10  1  0
 10 11  2  3
  9 12  1  0
 12 13  1  0
 13 14  1  0
 14 15  1  0
 15 16  1  0
 16 17  1  0
 17 18  1  0
  7 19  1  0
 19 20  1  0
 20 21  1  0
 21 22  1  0
 22 23  1  0
 23 24  2  3
 23 25  1  0
 25 26  2  3
 14 12  1  0
 17 15  1  0
 22 20  1  0
  1 27  1  0
  4 28  1  0
  4 29  1  0
  5 30  1  0
  7 31  1  0
  8 32  1  0
  8 33  1  0
  9 34  1  0
 10 35  1  0
 11 36  1  0
 12 37  1  0
 13 38  1  0
 13 39  1  0
 14 40  1  0
 15 41  1  0
 16 42  1  0
 16 43  1  0
 17 44  1  0
 18 45  1  0
 18 46  1  0
 18 47  1  0
 19 48  1  0
 19 49  1  0
 20 50  1  0
 21 51  1  0
 22 52  1  0
 24 53  1  0
 24 54  1  0
 26 55  1  0
M  END
