
     RDKit          2D

 64 68  0  0  0  0  0  0  0  0999 V2000
   21.3540  -19.1901   -8.6723 C   0  0  0  0  0  0  0  0  0  0  0  0
   21.1292  -20.6359   -8.3416 C   0  0  0  0  0  0  0  0  0  0  0  0
   20.9046  -22.0816   -8.0108 C   0  0  0  0  0  0  0  0  0  0  0  0
   20.6799  -23.5273   -7.6801 C   0  0  0  0  0  0  0  0  0  0  0  0
   21.8212  -23.7587   -6.7348 C   0  0  0  0  0  0  0  0  0  0  0  0
   23.1484  -24.2203   -7.2600 N   0  0  0  0  0  0  0  0  0  0  0  0
   20.0587  -24.8927   -7.6777 C   0  0  0  0  0  0  0  0  0  0  0  0
   19.4604  -23.7980   -8.5106 C   0  0  0  0  0  0  0  0  0  0  0  0
   19.2616  -22.4463   -9.1297 C   0  0  0  0  0  0  0  0  0  0  0  0
   20.7381  -22.1938   -9.0524 N   0  0  0  0  0  0  0  0  0  0  0  0
   19.0628  -21.0946   -9.7488 C   0  0  0  0  0  0  0  0  0  0  0  0
   19.9041  -19.8712   -9.5352 O   0  0  0  0  0  0  0  0  0  0  0  0
   17.9214  -20.8632  -10.6942 C   0  0  0  0  0  0  0  0  0  0  0  0
   18.6316  -19.5445  -10.6129 C   0  0  0  0  0  0  0  0  0  0  0  0
   18.4328  -18.1927  -11.2320 C   0  0  0  0  0  0  0  0  0  0  0  0
   17.4414  -17.5998  -12.1889 C   0  0  0  0  0  0  0  0  0  0  0  0
   17.1647  -19.0451  -11.8978 C   0  0  0  0  0  0  0  0  0  0  0  0
   15.9770  -19.0019  -12.8130 C   0  0  0  0  0  0  0  0  0  0  0  0
   15.7268  -20.7835  -12.3851 C   0  0  0  0  0  0  0  0  0  0  0  0
   15.2974  -22.2107  -12.2160 C   0  0  0  0  0  0  0  0  0  0  0  0
   14.8679  -23.6379  -12.0469 C   0  0  0  0  0  0  0  0  0  0  0  0
   14.0741  -24.8999  -12.2113 C   0  0  0  0  0  0  0  0  0  0  0  0
   13.6693  -23.6579  -12.9485 C   0  0  0  0  0  0  0  0  0  0  0  0
   12.4662  -24.1712  -13.6827 C   0  0  0  0  0  0  0  0  0  0  0  0
   16.7182  -21.3764  -11.4283 N   0  0  0  0  0  0  0  0  0  0  0  0
   16.2537  -17.5567  -13.1041 C   0  0  0  0  0  0  0  0  0  0  0  0
   17.0873  -16.3267  -12.8986 C   0  0  0  0  0  0  0  0  0  0  0  0
   21.5787  -17.7445   -9.0030 H   0  0  0  0  0  0  0  0  0  0  0  0
   22.5453  -19.1669   -7.7610 H   0  0  0  0  0  0  0  0  0  0  0  0
   20.2524  -18.8629   -9.6365 H   0  0  0  0  0  0  0  0  0  0  0  0
   20.0194  -20.3049   -9.2947 H   0  0  0  0  0  0  0  0  0  0  0  0
   22.3291  -20.6165   -7.4416 H   0  0  0  0  0  0  0  0  0  0  0  0
   19.8020  -21.7539   -8.9736 H   0  0  0  0  0  0  0  0  0  0  0  0
   22.0969  -22.0588   -7.1010 H   0  0  0  0  0  0  0  0  0  0  0  0
   21.6356  -23.5286   -5.2642 H   0  0  0  0  0  0  0  0  0  0  0  0
   24.2897  -24.4517   -6.3147 H   0  0  0  0  0  0  0  0  0  0  0  0
   19.1161  -26.0131   -8.0038 H   0  0  0  0  0  0  0  0  0  0  0  0
   20.9844  -25.5982   -6.7315 H   0  0  0  0  0  0  0  0  0  0  0  0
   18.3099  -24.5382   -9.1260 H   0  0  0  0  0  0  0  0  0  0  0  0
   17.8203  -22.8618   -9.1309 H   0  0  0  0  0  0  0  0  0  0  0  0
   21.6487  -23.2381   -8.4776 H   0  0  0  0  0  0  0  0  0  0  0  0
   20.9539  -20.8248   -9.6263 H   0  0  0  0  0  0  0  0  0  0  0  0
   17.6550  -22.3087  -10.3951 H   0  0  0  0  0  0  0  0  0  0  0  0
   19.7424  -18.6989  -10.0640 H   0  0  0  0  0  0  0  0  0  0  0  0
   19.7574  -19.8254   -9.6622 H   0  0  0  0  0  0  0  0  0  0  0  0
   18.8622  -16.7656  -11.4012 H   0  0  0  0  0  0  0  0  0  0  0  0
   19.6519  -17.8726  -10.4189 H   0  0  0  0  0  0  0  0  0  0  0  0
   16.8879  -20.4903  -11.6067 H   0  0  0  0  0  0  0  0  0  0  0  0
   18.2501  -19.4367  -10.9394 H   0  0  0  0  0  0  0  0  0  0  0  0
   14.9414  -19.9934  -13.2543 H   0  0  0  0  0  0  0  0  0  0  0  0
   14.5131  -20.9294  -13.2545 H   0  0  0  0  0  0  0  0  0  0  0  0
   14.2035  -21.8009  -13.1571 H   0  0  0  0  0  0  0  0  0  0  0  0
   16.3912  -22.6205  -11.2750 H   0  0  0  0  0  0  0  0  0  0  0  0
   15.9174  -24.1137  -11.0865 H   0  0  0  0  0  0  0  0  0  0  0  0
   14.8478  -25.8140  -11.3080 H   0  0  0  0  0  0  0  0  0  0  0  0
   13.0922  -25.9710  -12.5843 H   0  0  0  0  0  0  0  0  0  0  0  0
   13.5338  -22.2812  -13.5284 H   0  0  0  0  0  0  0  0  0  0  0  0
   11.2630  -24.6844  -14.4168 H   0  0  0  0  0  0  0  0  0  0  0  0
   12.2652  -22.8184  -14.2989 H   0  0  0  0  0  0  0  0  0  0  0  0
   12.5190  -25.5763  -13.1606 H   0  0  0  0  0  0  0  0  0  0  0  0
   16.5882  -22.8161  -11.0278 H   0  0  0  0  0  0  0  0  0  0  0  0
   15.1781  -17.1410  -14.0634 H   0  0  0  0  0  0  0  0  0  0  0  0
   16.3553  -15.3647  -13.7868 H   0  0  0  0  0  0  0  0  0  0  0  0
   18.1750  -15.4308  -12.3846 H   0  0  0  0  0  0  0  0  0  0  0  0
  1  2  1  0
  2  3  1  0
  3  4  1  0
  4  5  1  0
  5  6  2  3
  4  7  1  0
  7  8  1  0
  8  9  1  0
  9 10  1  0
  9 11  1  0
 11 12  2  0
 11 13  1  0
 13 14  1  0
 14 15  1  0
 15 16  1  0
 16 17  1  0
 17 18  1  0
 18 19  1  0
 19 20  1  0
 20 21  1  0
 21 22  1  0
 22 23  1  0
 23 24  1  0
 19 25  1  0
 18 26  1  0
 26 27  1  0
  8  4  1  0
 25 13  1  0
 26 16  1  0
 27 16  1  0
 23 21  1  0
  1 28  1  0
  1 29  1  0
  1 30  1  0
  2 31  1  0
  2 32  1  0
  3 33  1  0
  3 34  1  0
  5 35  1  0
  6 36  1  0
  7 37  1  0
  7 38  1  0
  8 39  1  0
  9 40  1  0
 10 41  1  0
 10 42  1  0
 13 43  1  0
 14 44  1  0
 14 45  1  0
 15 46  1  0
 15 47  1  0
 17 48  1  0
 17 49  1  0
 18 50  1  0
 19 51  1  0
 20 52  1  0
 20 53  1  0
 21 54  1  0
 22 55  1  0
 22 56  1  0
 23 57  1  0
 24 58  1  0
 24 59  1  0
 24 60  1  0
 25 61  1  0
 26 62  1  0
 27 63  1  0
 27 64  1  0
M  END
