
     RDKit          2D

109117  0  0  0  0  0  0  0  0999 V2000
   15.8554  -15.7387   -4.5081 C   0  0  0  0  0  0  0  0  0  0  0  0
   16.4829  -16.3118   -5.7442 C   0  0  0  0  0  0  0  0  0  0  0  0
   17.1104  -16.8848   -6.9803 C   0  0  0  0  0  0  0  0  0  0  0  0
   17.7379  -17.4578   -8.2164 C   0  0  0  0  0  0  0  0  0  0  0  0
   16.7264  -18.4278   -8.7513 C   0  0  0  0  0  0  0  0  0  0  0  0
   15.7150  -19.3978   -9.2862 C   0  0  0  0  0  0  0  0  0  0  0  0
   17.6471  -18.7611   -9.8877 C   0  0  0  0  0  0  0  0  0  0  0  0
   17.5829  -19.6827  -11.0695 C   0  0  0  0  0  0  0  0  0  0  0  0
   18.0463  -20.3618  -12.3240 C   0  0  0  0  0  0  0  0  0  0  0  0
   18.5035  -20.0160  -12.2059 C   0  0  0  0  0  0  0  0  0  0  0  0
   19.8696  -19.5658  -12.6311 C   0  0  0  0  0  0  0  0  0  0  0  0
   20.8810  -18.5957  -12.0963 C   0  0  0  0  0  0  0  0  0  0  0  0
   20.9452  -17.6742  -10.9146 C   0  0  0  0  0  0  0  0  0  0  0  0
   20.0246  -17.3409   -9.7782 C   0  0  0  0  0  0  0  0  0  0  0  0
   19.7330  -16.5672   -8.5266 C   0  0  0  0  0  0  0  0  0  0  0  0
   19.4415  -15.7936   -7.2750 C   0  0  0  0  0  0  0  0  0  0  0  0
   21.0690  -15.8933   -8.6319 C   0  0  0  0  0  0  0  0  0  0  0  0
   22.4049  -15.2194   -8.7373 C   0  0  0  0  0  0  0  0  0  0  0  0
   22.9241  -15.8643   -9.9882 O   0  0  0  0  0  0  0  0  0  0  0  0
   23.5606  -14.3215   -8.4083 C   0  0  0  0  0  0  0  0  0  0  0  0
   22.3498  -14.3404   -7.5231 S   0  0  0  0  0  4  0  0  0  0  0  0
   22.7652  -13.3335   -6.4919 C   0  0  0  0  0  0  0  0  0  0  0  0
   23.1807  -12.3265   -5.4606 C   0  0  0  0  0  0  0  0  0  0  0  0
   20.9947  -14.7091   -6.9960 O   0  0  0  0  0  0  0  0  0  0  0  0
   20.4756  -14.0642   -5.7450 S   0  0  0  0  0  5  0  0  0  0  0  0
   19.9565  -13.4194   -4.4942 C   0  0  0  0  0  0  0  0  0  0  0  0
   18.6585  -17.7911   -9.3528 C   0  0  0  0  0  0  0  0  0  0  0  0
   19.0741  -16.7844   -8.3214 C   0  0  0  0  0  0  0  0  0  0  0  0
   20.4295  -16.4162   -8.8482 C   0  0  0  0  0  0  0  0  0  0  0  0
   21.7848  -16.0480   -9.3748 C   0  0  0  0  0  0  0  0  0  0  0  0
   17.4921  -20.9860  -12.7407 C   0  0  0  0  0  0  0  0  0  0  0  0
   16.8146  -22.0116  -13.6006 C   0  0  0  0  0  0  0  0  0  0  0  0
   15.4754  -22.3121  -12.9956 C   0  0  0  0  0  0  0  0  0  0  0  0
   14.1159  -22.9009  -12.7604 C   0  0  0  0  0  0  0  0  0  0  0  0
   13.9656  -22.0611  -11.5267 C   0  0  0  0  0  0  0  0  0  0  0  0
   15.3250  -21.4723  -11.7618 C   0  0  0  0  0  0  0  0  0  0  0  0
   14.9639  -20.7349  -10.5065 C   0  0  0  0  0  0  0  0  0  0  0  0
   16.5714  -20.6527  -11.6044 C   0  0  0  0  0  0  0  0  0  0  0  0
   14.2662  -23.7407  -13.9941 C   0  0  0  0  0  0  0  0  0  0  0  0
   14.4165  -24.5805  -15.2278 C   0  0  0  0  0  0  0  0  0  0  0  0
   14.5668  -25.4204  -16.4616 N   0  0  0  0  0  0  0  0  0  0  0  0
   15.7759  -23.9917  -15.4631 C   0  0  0  0  0  0  0  0  0  0  0  0
   17.1353  -23.4029  -15.6983 C   0  0  0  0  0  0  0  0  0  0  0  0
   18.4947  -22.8140  -15.9335 C   0  0  0  0  0  0  0  0  0  0  0  0
   15.6256  -23.1519  -14.2294 C   0  0  0  0  0  0  0  0  0  0  0  0
   15.2279  -15.1657   -3.2720 H   0  0  0  0  0  0  0  0  0  0  0  0
   18.2681  -15.9431   -6.8291 H   0  0  0  0  0  0  0  0  0  0  0  0
   15.8848  -17.7495   -6.9797 H   0  0  0  0  0  0  0  0  0  0  0  0
   15.6894  -18.2152   -7.6886 H   0  0  0  0  0  0  0  0  0  0  0  0
   14.5906  -20.3039   -9.6919 H   0  0  0  0  0  0  0  0  0  0  0  0
   14.7257  -18.9325   -8.2592 H   0  0  0  0  0  0  0  0  0  0  0  0
   16.7044  -19.8631  -10.3132 H   0  0  0  0  0  0  0  0  0  0  0  0
   16.5108  -19.6712  -10.2488 H   0  0  0  0  0  0  0  0  0  0  0  0
   18.5098  -21.0410  -13.5786 H   0  0  0  0  0  0  0  0  0  0  0  0
   19.5425  -20.2921  -12.2430 H   0  0  0  0  0  0  0  0  0  0  0  0
   16.6200  -20.6031  -12.7204 H   0  0  0  0  0  0  0  0  0  0  0  0
   19.1203  -20.5964  -13.4438 H   0  0  0  0  0  0  0  0  0  0  0  0
   20.9220  -19.7609  -13.6820 H   0  0  0  0  0  0  0  0  0  0  0  0
   19.6160  -20.5410  -13.7422 H   0  0  0  0  0  0  0  0  0  0  0  0
   22.2429  -18.0217  -12.3531 H   0  0  0  0  0  0  0  0  0  0  0  0
   21.6520  -19.0608  -13.2960 H   0  0  0  0  0  0  0  0  0  0  0  0
   22.0474  -16.7444  -10.5015 H   0  0  0  0  0  0  0  0  0  0  0  0
   22.2892  -17.3566  -11.5002 H   0  0  0  0  0  0  0  0  0  0  0  0
   21.3555  -16.6541   -9.8613 H   0  0  0  0  0  0  0  0  0  0  0  0
   18.3663  -17.0339   -8.1215 H   0  0  0  0  0  0  0  0  0  0  0  0
   18.9892  -15.1077   -6.0200 H   0  0  0  0  0  0  0  0  0  0  0  0
   20.4843  -14.8357   -6.7800 H   0  0  0  0  0  0  0  0  0  0  0  0
   18.1508  -16.5562   -7.3233 H   0  0  0  0  0  0  0  0  0  0  0  0
   20.7773  -15.1193   -7.3806 H   0  0  0  0  0  0  0  0  0  0  0  0
   21.5214  -16.5794   -9.8868 H   0  0  0  0  0  0  0  0  0  0  0  0
   24.2792  -15.4956  -10.5152 H   0  0  0  0  0  0  0  0  0  0  0  0
   24.4810  -14.6546   -9.5448 H   0  0  0  0  0  0  0  0  0  0  0  0
   24.5222  -13.3349   -7.8150 H   0  0  0  0  0  0  0  0  0  0  0  0
   24.1107  -13.0185   -7.0755 H   0  0  0  0  0  0  0  0  0  0  0  0
   21.5211  -13.4029   -5.6568 H   0  0  0  0  0  0  0  0  0  0  0  0
   23.5962  -11.3195   -4.4295 H   0  0  0  0  0  0  0  0  0  0  0  0
   21.8780  -12.5232   -4.7436 H   0  0  0  0  0  0  0  0  0  0  0  0
   24.4835  -12.1297   -6.1776 H   0  0  0  0  0  0  0  0  0  0  0  0
   21.6670  -13.1920   -5.4811 H   0  0  0  0  0  0  0  0  0  0  0  0
   19.1576  -14.7793   -5.7041 H   0  0  0  0  0  0  0  0  0  0  0  0
   18.6021  -13.7894   -3.9661 H   0  0  0  0  0  0  0  0  0  0  0  0
   20.7916  -12.4044   -3.7714 H   0  0  0  0  0  0  0  0  0  0  0  0
   18.8529  -15.9765   -7.0771 H   0  0  0  0  0  0  0  0  0  0  0  0
   20.6128  -15.4593   -7.7076 H   0  0  0  0  0  0  0  0  0  0  0  0
   20.5795  -17.2555  -10.0822 H   0  0  0  0  0  0  0  0  0  0  0  0
   23.0557  -15.9224  -10.1618 H   0  0  0  0  0  0  0  0  0  0  0  0
   22.2903  -15.0300   -8.3959 H   0  0  0  0  0  0  0  0  0  0  0  0
   21.9352  -16.8878  -10.6086 H   0  0  0  0  0  0  0  0  0  0  0  0
   18.3209  -21.4026  -13.9194 H   0  0  0  0  0  0  0  0  0  0  0  0
   18.1246  -21.7977  -14.2991 H   0  0  0  0  0  0  0  0  0  0  0  0
   16.7266  -22.9408  -14.7747 H   0  0  0  0  0  0  0  0  0  0  0  0
   12.7565  -23.4898  -12.5252 H   0  0  0  0  0  0  0  0  0  0  0  0
   13.6507  -21.2993  -10.2734 H   0  0  0  0  0  0  0  0  0  0  0  0
   12.6063  -22.6499  -11.2914 H   0  0  0  0  0  0  0  0  0  0  0  0
   14.4447  -20.0900   -9.2558 H   0  0  0  0  0  0  0  0  0  0  0  0
   13.6106  -21.3527  -10.3144 H   0  0  0  0  0  0  0  0  0  0  0  0
   16.3172  -20.1171  -10.6985 H   0  0  0  0  0  0  0  0  0  0  0  0
   15.9653  -20.0649  -10.3646 H   0  0  0  0  0  0  0  0  0  0  0  0
   12.9068  -24.3296  -13.7589 H   0  0  0  0  0  0  0  0  0  0  0  0
   13.0572  -25.1694  -14.9927 H   0  0  0  0  0  0  0  0  0  0  0  0
   13.4626  -26.3464  -16.8776 H   0  0  0  0  0  0  0  0  0  0  0  0
   15.7448  -25.4590  -17.3893 H   0  0  0  0  0  0  0  0  0  0  0  0
   16.0908  -24.7535  -16.7163 H   0  0  0  0  0  0  0  0  0  0  0  0
   17.1711  -24.0297  -17.0606 H   0  0  0  0  0  0  0  0  0  0  0  0
   17.4295  -22.6521  -14.4334 H   0  0  0  0  0  0  0  0  0  0  0  0
   19.8541  -22.2252  -16.1687 H   0  0  0  0  0  0  0  0  0  0  0  0
   18.5307  -23.4412  -17.2956 H   0  0  0  0  0  0  0  0  0  0  0  0
   18.6247  -22.1197  -14.6103 H   0  0  0  0  0  0  0  0  0  0  0  0
   16.9850  -22.5630  -14.4646 H   0  0  0  0  0  0  0  0  0  0  0  0
  1  2  3  0
  2  3  1  0
  3  4  1  0
  4  5  1  0
  5  6  1  0
  5  7  1  0
  7  8  1  0
  8  9  1  0
  8 10  1  0
 10 11  1  0
 11 12  1  0
 12 13  1  0
 13 14  1  0
 14 15  1  0
 15 16  1  0
 15 17  1  0
 17 18  1  0
 18 19  1  0
 18 20  1  0
 20 21  1  0
 21 22  1  0
 22 23  1  0
 21 24  1  0
 24 25  1  0
 25 26  2  3
 14 27  1  0
 27 28  1  0
 28 29  1  0
 29 30  1  0
 10 31  1  0
 31 32  1  0
 32 33  1  0
 33 34  1  0
 34 35  1  0
 35 36  1  0
 36 37  1  0
 36 38  1  0
 34 39  1  0
 39 40  1  0
 40 41  1  0
 40 42  1  0
 42 43  1  0
 43 44  1  0
 42 45  1  0
 27  4  1  0
 38 31  1  0
 45 39  1  0
 28  4  1  0
 36 33  1  0
 27  7  1  0
 45 33  1  0
 38  8  1  0
 21 18  1  0
  1 46  1  0
  3 47  1  0
  3 48  1  0
  5 49  1  0
  6 50  1  0
  6 51  1  0
  6 52  1  0
  7 53  1  0
  9 54  1  0
  9 55  1  0
  9 56  1  0
 10 57  1  0
 11 58  1  0
 11 59  1  0
 12 60  1  0
 12 61  1  0
 13 62  1  0
 13 63  1  0
 14 64  1  0
 15 65  1  0
 16 66  1  0
 16 67  1  0
 16 68  1  0
 17 69  1  0
 17 70  1  0
 19 71  1  0
 20 72  1  0
 20 73  1  0
 22 74  1  0
 22 75  1  0
 23 76  1  0
 23 77  1  0
 23 78  1  0
 25 79  1  0
 25 80  1  0
 26 81  1  0
 26 82  1  0
 28 83  1  0
 29 84  1  0
 29 85  1  0
 30 86  1  0
 30 87  1  0
 30 88  1  0
 31 89  1  0
 32 90  1  0
 32 91  1  0
 34 92  1  0
 35 93  1  0
 35 94  1  0
 37 95  1  0
 37 96  1  0
 37 97  1  0
 38 98  1  0
 39 99  1  0
 40100  1  0
 41101  1  0
 41102  1  0
 42103  1  0
 43104  1  0
 43105  1  0
 44106  1  0
 44107  1  0
 44108  1  0
 45109  1  0
M  RAD  1  25   2
M  END
