
     RDKit          2D

 20 23  0  0  0  0  0  0  0  0999 V2000
   15.0441  -19.3735   -6.2928 C   0  0  0  0  0  0  0  0  0  0  0  0
   15.0232  -20.3422   -5.1477 C   0  0  0  0  0  0  0  0  0  0  0  0
   14.7598  -20.0691   -3.6965 N   0  0  0  0  0  0  0  0  0  0  0  0
   14.4521  -18.7600   -3.0319 C   0  0  0  0  0  0  0  0  0  0  0  0
   14.3320  -17.4006   -3.6545 C   0  0  0  0  0  0  0  0  0  0  0  0
   14.4898  -17.0145   -5.0954 C   0  0  0  0  0  0  0  0  0  0  0  0
   14.6042  -16.4195   -6.4676 C   0  0  0  0  0  0  0  0  0  0  0  0
   14.8067  -17.8925   -6.2696 C   0  0  0  0  0  0  0  0  0  0  0  0
   14.5265  -20.0162   -2.2156 C   0  0  0  0  0  0  0  0  0  0  0  0
   15.3607  -20.5881   -7.1140 H   0  0  0  0  0  0  0  0  0  0  0  0
   15.2020  -18.9874   -7.7337 H   0  0  0  0  0  0  0  0  0  0  0  0
   15.1434  -21.7014   -4.5252 H   0  0  0  0  0  0  0  0  0  0  0  0
   15.3440  -21.3591   -6.2026 H   0  0  0  0  0  0  0  0  0  0  0  0
   14.1463  -18.0697   -1.7358 H   0  0  0  0  0  0  0  0  0  0  0  0
   14.0116  -16.2789   -2.7116 H   0  0  0  0  0  0  0  0  0  0  0  0
   14.1992  -15.6164   -4.6359 H   0  0  0  0  0  0  0  0  0  0  0  0
   14.3287  -14.9794   -6.1508 H   0  0  0  0  0  0  0  0  0  0  0  0
   14.8143  -16.3247   -7.9498 H   0  0  0  0  0  0  0  0  0  0  0  0
   15.0400  -17.9454   -7.7504 H   0  0  0  0  0  0  0  0  0  0  0  0
   14.4349  -20.7110   -0.8895 H   0  0  0  0  0  0  0  0  0  0  0  0
  1  2  1  0
  2  3  1  0
  3  4  1  0
  4  5  1  0
  5  6  1  0
  6  7  1  0
  7  8  1  0
  5  9  1  0
  8  1  1  0
  9  3  1  0
  9  4  1  0
  8  6  1  0
  1 10  1  0
  1 11  1  0
  2 12  1  0
  2 13  1  0
  4 14  1  0
  5 15  1  0
  6 16  1  0
  7 17  1  0
  7 18  1  0
  8 19  1  0
  9 20  1  0
M  END
