
     RDKit          2D

 59 64  0  0  0  0  0  0  0  0999 V2000
   17.8847  -17.1536  -17.4400 C   0  0  0  0  0  0  0  0  0  0  0  0
   18.0224  -16.6276  -16.0421 B   0  0  0  0  0  0  0  0  0  0  0  0
   18.6696  -15.2958  -15.8022 O   0  0  0  0  0  0  0  0  0  0  0  0
   17.5130  -17.4334  -14.8839 C   0  0  0  0  0  0  0  0  0  0  0  0
   17.0035  -18.2391  -13.7259 C   0  0  0  0  0  0  0  0  0  0  0  0
   16.4940  -19.0449  -12.5677 C   0  0  0  0  0  0  0  0  0  0  0  0
   15.9845  -19.8506  -11.4097 C   0  0  0  0  0  0  0  0  0  0  0  0
   15.4750  -20.6563  -10.2516 C   0  0  0  0  0  0  0  0  0  0  0  0
   15.5434  -21.8849   -9.3937 C   0  0  0  0  0  0  0  0  0  0  0  0
   15.5877  -20.9913  -10.1187 C   0  0  0  0  0  0  0  0  0  0  0  0
   16.9587  -22.7500  -10.2581 C   0  0  0  0  0  0  0  0  0  0  0  0
   17.5867  -24.0723   -9.9303 C   0  0  0  0  0  0  0  0  0  0  0  0
   18.5397  -23.9038  -11.0764 C   0  0  0  0  0  0  0  0  0  0  0  0
   19.1677  -25.2260  -10.7486 C   0  0  0  0  0  0  0  0  0  0  0  0
   18.2147  -25.3944   -9.6025 C   0  0  0  0  0  0  0  0  0  0  0  0
   14.7339  -20.0790   -9.8932 C   0  0  0  0  0  0  0  0  0  0  0  0
   14.7429  -19.1855  -10.5803 C   0  0  0  0  0  0  0  0  0  0  0  0
   13.8277  -18.2727  -10.2893 C   0  0  0  0  0  0  0  0  0  0  0  0
   14.9652  -18.7891  -11.1196 C   0  0  0  0  0  0  0  0  0  0  0  0
   14.4557  -19.5948   -9.9615 C   0  0  0  0  0  0  0  0  0  0  0  0
   13.5048  -19.7619   -8.8135 O   0  0  0  0  0  0  0  0  0  0  0  0
   13.5733  -20.9904   -7.9556 O   0  0  0  0  0  0  0  0  0  0  0  0
   14.5925  -22.0519   -8.2457 C   0  0  0  0  0  0  0  0  0  0  0  0
   13.8365  -22.5555   -7.0520 C   0  0  0  0  0  0  0  0  0  0  0  0
   14.6893  -23.7895   -7.0325 C   0  0  0  0  0  0  0  0  0  0  0  0
   15.4453  -23.2859   -8.2262 O   0  0  0  0  0  0  0  0  0  0  0  0
   17.7470  -17.6797  -18.8380 H   0  0  0  0  0  0  0  0  0  0  0  0
   16.4493  -16.7189  -17.4622 H   0  0  0  0  0  0  0  0  0  0  0  0
   19.3202  -17.5883  -17.4179 H   0  0  0  0  0  0  0  0  0  0  0  0
   19.1791  -14.4901  -16.9603 H   0  0  0  0  0  0  0  0  0  0  0  0
   18.8519  -18.0978  -14.7572 H   0  0  0  0  0  0  0  0  0  0  0  0
   16.1742  -16.7689  -15.0107 H   0  0  0  0  0  0  0  0  0  0  0  0
   15.6643  -17.5756  -13.8535 H   0  0  0  0  0  0  0  0  0  0  0  0
   18.3428  -18.9026  -13.5983 H   0  0  0  0  0  0  0  0  0  0  0  0
   15.3177  -18.2065  -12.9721 H   0  0  0  0  0  0  0  0  0  0  0  0
   17.8334  -19.7080  -12.4398 H   0  0  0  0  0  0  0  0  0  0  0  0
   17.0968  -20.6857  -11.9714 H   0  0  0  0  0  0  0  0  0  0  0  0
   16.6135  -21.1941  -11.0669 H   0  0  0  0  0  0  0  0  0  0  0  0
   16.3124  -23.1647   -9.2495 H   0  0  0  0  0  0  0  0  0  0  0  0
   17.4628  -21.8762  -11.4619 H   0  0  0  0  0  0  0  0  0  0  0  0
   17.8260  -22.4231  -11.4374 H   0  0  0  0  0  0  0  0  0  0  0  0
   16.0915  -23.0771   -9.0787 H   0  0  0  0  0  0  0  0  0  0  0  0
   16.6338  -24.2408   -8.7842 H   0  0  0  0  0  0  0  0  0  0  0  0
   19.4926  -23.7353  -12.2225 H   0  0  0  0  0  0  0  0  0  0  0  0
   18.0325  -22.5709  -11.5414 H   0  0  0  0  0  0  0  0  0  0  0  0
   19.7957  -26.5481  -10.4208 H   0  0  0  0  0  0  0  0  0  0  0  0
   20.1206  -25.0575  -11.8947 H   0  0  0  0  0  0  0  0  0  0  0  0
   17.2618  -25.5629   -8.4564 H   0  0  0  0  0  0  0  0  0  0  0  0
   18.8427  -26.7166   -9.2747 H   0  0  0  0  0  0  0  0  0  0  0  0
   17.3125  -20.8579  -12.0725 H   0  0  0  0  0  0  0  0  0  0  0  0
   16.8945  -19.6059  -12.5727 H   0  0  0  0  0  0  0  0  0  0  0  0
   15.5074  -18.0540  -12.2592 H   0  0  0  0  0  0  0  0  0  0  0  0
   14.6917  -17.7127  -11.6418 H   0  0  0  0  0  0  0  0  0  0  0  0
   12.8084  -17.2112   -9.9992 H   0  0  0  0  0  0  0  0  0  0  0  0
   14.9166  -17.5697  -11.9918 H   0  0  0  0  0  0  0  0  0  0  0  0
   13.0806  -23.0591   -5.8583 H   0  0  0  0  0  0  0  0  0  0  0  0
   12.9839  -21.3216   -7.0715 H   0  0  0  0  0  0  0  0  0  0  0  0
   15.5420  -25.0233   -7.0130 H   0  0  0  0  0  0  0  0  0  0  0  0
   13.9333  -24.2930   -5.8388 H   0  0  0  0  0  0  0  0  0  0  0  0
  1  2  1  0
  2  3  1  0
  2  4  1  0
  4  5  1  0
  5  6  1  0
  6  7  1  0
  7  8  1  0
  8  9  1  0
  9 10  1  0
 10 11  1  0
 11 12  1  0
 12 13  1  0
 13 14  1  0
 14 15  1  0
 10 16  1  0
 16 17  1  0
 17 18  1  0
 18 19  1  0
 19 20  1  0
 20 21  1  0
 21 22  1  0
 22 23  1  0
 23 24  1  0
 24 25  1  0
 25 26  1  0
 19  7  1  0
 26 23  1  0
 20  8  1  0
 23  9  1  0
 15 12  1  0
 20 18  1  0
  1 27  1  0
  1 28  1  0
  1 29  1  0
  3 30  1  0
  4 31  1  0
  4 32  1  0
  5 33  1  0
  5 34  1  0
  6 35  1  0
  6 36  1  0
  7 37  1  0
  8 38  1  0
  9 39  1  0
 10 40  1  0
 11 41  1  0
 11 42  1  0
 12 43  1  0
 13 44  1  0
 13 45  1  0
 14 46  1  0
 14 47  1  0
 15 48  1  0
 15 49  1  0
 16 50  1  0
 16 51  1  0
 17 52  1  0
 17 53  1  0
 18 54  1  0
 19 55  1  0
 24 56  1  0
 24 57  1  0
 25 58  1  0
 25 59  1  0
M  END
