
     RDKit          2D

 24 24  0  0  0  0  0  0  0  0999 V2000
   17.6053  -26.2178   -5.8056 C   0  0  0  0  0  0  0  0  0  0  0  0
   17.9039  -24.7566   -5.9654 Mg  0  0  0  0  0  2  0  0  0  0  0  0
   18.2026  -23.2953   -6.1253 C   0  0  0  0  0  0  0  0  0  0  0  0
   16.9946  -22.8663   -6.9041 O   0  0  0  0  0  0  0  0  0  0  0  0
   18.0457  -21.8613   -6.5363 C   0  0  0  0  0  0  0  0  0  0  0  0
   19.3029  -21.2849   -5.9557 C   0  0  0  0  0  0  0  0  0  0  0  0
   17.4522  -20.6275   -7.1490 Sb  0  0  0  0  0  3  0  0  0  0  0  0
   16.1405  -20.7059   -7.8723 C   0  0  0  0  0  0  0  0  0  0  0  0
   15.5470  -19.4720   -8.4850 O   0  0  0  0  0  0  0  0  0  0  0  0
   15.4223  -22.0181   -7.9830 O   0  0  0  0  0  0  0  0  0  0  0  0
   14.1105  -22.0965   -8.7064 C   0  0  0  0  0  0  0  0  0  0  0  0
   12.7988  -22.1749   -9.4297 O   0  0  0  0  0  0  0  0  0  0  0  0
   14.0384  -23.5664   -8.4163 O   0  0  0  0  0  0  0  0  0  0  0  0
   17.3066  -27.6791   -5.6458 H   0  0  0  0  0  0  0  0  0  0  0  0
   16.3259  -26.0398   -6.5682 H   0  0  0  0  0  0  0  0  0  0  0  0
   18.8846  -26.3960   -5.0430 H   0  0  0  0  0  0  0  0  0  0  0  0
   19.3665  -23.3866   -5.4473 H   0  0  0  0  0  0  0  0  0  0  0  0
   20.5602  -20.7085   -5.3752 H   0  0  0  0  0  0  0  0  0  0  0  0
   19.7786  -22.4306   -5.4231 H   0  0  0  0  0  0  0  0  0  0  0  0
   18.9250  -19.9316   -6.4806 H   0  0  0  0  0  0  0  0  0  0  0  0
   18.1704  -19.3152   -7.0383 H   0  0  0  0  0  0  0  0  0  0  0  0
   14.1827  -20.6266   -8.9963 H   0  0  0  0  0  0  0  0  0  0  0  0
   12.2053  -20.9411  -10.0424 H   0  0  0  0  0  0  0  0  0  0  0  0
   12.8625  -24.3677   -8.8908 H   0  0  0  0  0  0  0  0  0  0  0  0
  1  2  1  0
  2  3  1  0
  3  4  1  0
  4  5  1  0
  5  6  1  0
  5  7  1  0
  7  8  1  0
  8  9  2  0
  8 10  1  0
 10 11  1  0
 11 12  1  0
 11 13  1  0
  5  3  1  0
  1 14  1  0
  1 15  1  0
  1 16  1  0
  3 17  1  0
  6 18  1  0
  6 19  1  0
  6 20  1  0
  7 21  1  0
 11 22  1  0
 12 23  1  0
 13 24  1  0
M  END
