
     RDKit          2D

 25 27  0  0  0  0  0  0  0  0999 V2000
   -5.6714   22.6307    8.6377 C   0  0  0  0  0  0  0  0  0  0  0  0
   -6.1832   21.7400    7.5447 C   0  0  0  0  0  0  0  0  0  0  0  0
   -5.2495   21.8562    6.3765 C   0  0  0  0  0  0  0  0  0  0  0  0
   -4.1605   22.8188    6.7476 C   0  0  0  0  0  0  0  0  0  0  0  0
   -2.9648   23.7206    6.8300 C   0  0  0  0  0  0  0  0  0  0  0  0
   -2.0311   23.8369    5.6619 C   0  0  0  0  0  0  0  0  0  0  0  0
   -0.8353   24.7388    5.7444 C   0  0  0  0  0  0  0  0  0  0  0  0
   -0.2457   24.5148    4.3835 C   0  0  0  0  0  0  0  0  0  0  0  0
    1.0106   25.2301    3.9833 C   0  0  0  0  0  0  0  0  0  0  0  0
    0.4209   25.4541    5.3443 C   0  0  0  0  0  0  0  0  0  0  0  0
   -4.4213   23.2974    8.1450 C   0  0  0  0  0  0  0  0  0  0  0  0
   -6.2994   22.8212    9.9865 H   0  0  0  0  0  0  0  0  0  0  0  0
   -7.4130   20.8834    7.6086 H   0  0  0  0  0  0  0  0  0  0  0  0
   -4.5111   21.7673    5.0739 H   0  0  0  0  0  0  0  0  0  0  0  0
   -6.1840   20.8751    5.7331 H   0  0  0  0  0  0  0  0  0  0  0  0
   -3.6498   22.5287    5.3673 H   0  0  0  0  0  0  0  0  0  0  0  0
   -2.6328   24.4103    7.7736 H   0  0  0  0  0  0  0  0  0  0  0  0
   -2.2930   23.0513    4.4112 H   0  0  0  0  0  0  0  0  0  0  0  0
   -1.0097   25.2761    7.1341 H   0  0  0  0  0  0  0  0  0  0  0  0
   -0.9124   23.5755    3.4226 H   0  0  0  0  0  0  0  0  0  0  0  0
    1.1849   24.6929    2.5938 H   0  0  0  0  0  0  0  0  0  0  0  0
    2.2063   26.1320    4.0659 H   0  0  0  0  0  0  0  0  0  0  0  0
    1.0877   26.3935    6.3051 H   0  0  0  0  0  0  0  0  0  0  0  0
   -4.4207   23.9437    9.4986 H   0  0  0  0  0  0  0  0  0  0  0  0
   -3.4291   23.9979    8.1130 H   0  0  0  0  0  0  0  0  0  0  0  0
  1  2  2  0
  2  3  1  0
  3  4  1  0
  4  5  1  0
  5  6  2  3
  6  7  1  0
  7  8  1  0
  8  9  1  0
  9 10  1  0
  4 11  1  0
 11  1  1  0
 10  7  1  0
 10  8  1  0
  1 12  1  0
  2 13  1  0
  3 14  1  0
  3 15  1  0
  4 16  1  0
  5 17  1  0
  6 18  1  0
  7 19  1  6
  8 20  1  1
  9 21  1  0
  9 22  1  0
 10 23  1  1
 11 24  1  0
 11 25  1  0
M  END
