
     RDKit          2D

 32 33  0  0  0  0  0  0  0  0999 V2000
    1.8069   26.5691    4.2255 C   0  0  0  0  0  0  0  0  0  0  0  0
    0.3878   27.0123    4.4245 C   0  0  0  0  0  0  0  0  0  0  0  0
   -1.0313   27.4556    4.6233 C   0  0  0  0  0  0  0  0  0  0  0  0
   -0.7755   28.6595    3.7658 O   0  0  0  0  0  0  0  0  0  0  0  0
   -2.4505   27.8989    4.8223 C   0  0  0  0  0  0  0  0  0  0  0  0
   -3.8696   28.3421    5.0212 O   0  0  0  0  0  0  0  0  0  0  0  0
   -1.2872   26.2517    5.4809 O   0  0  0  0  0  0  0  0  0  0  0  0
   -2.6435   26.0348    6.0836 C   0  0  0  0  0  0  0  0  0  0  0  0
   -3.1311   27.2999    5.4418 B   0  0  0  0  0  0  0  0  0  0  0  0
   -3.0141   28.6048    6.1723 O   0  0  0  0  0  0  0  0  0  0  0  0
   -3.7357   27.2601    4.0697 O   0  0  0  0  0  0  0  0  0  0  0  0
   -2.1559   24.7697    6.7254 C   0  0  0  0  0  0  0  0  0  0  0  0
   -0.7359   24.7632    6.2424 C   0  0  0  0  0  0  0  0  0  0  0  0
    0.1861   23.6484    6.6390 C   0  0  0  0  0  0  0  0  0  0  0  0
   -1.2340   23.6550    7.1221 C   0  0  0  0  0  0  0  0  0  0  0  0
    3.2260   26.1258    4.0266 H   0  0  0  0  0  0  0  0  0  0  0  0
    2.1356   27.8972    3.6108 H   0  0  0  0  0  0  0  0  0  0  0  0
    1.4782   25.2409    4.8403 H   0  0  0  0  0  0  0  0  0  0  0  0
   -0.0390   25.8718    5.3002 H   0  0  0  0  0  0  0  0  0  0  0  0
    0.8145   28.1529    3.5487 H   0  0  0  0  0  0  0  0  0  0  0  0
    0.5112   29.0289    3.0894 H   0  0  0  0  0  0  0  0  0  0  0  0
   -2.3505   29.1828    4.0532 H   0  0  0  0  0  0  0  0  0  0  0  0
   -3.3596   27.0130    5.6214 H   0  0  0  0  0  0  0  0  0  0  0  0
   -4.3574   29.6067    4.3786 H   0  0  0  0  0  0  0  0  0  0  0  0
   -3.9999   25.8179    6.6863 H   0  0  0  0  0  0  0  0  0  0  0  0
   -3.4473   29.9551    5.6833 H   0  0  0  0  0  0  0  0  0  0  0  0
   -2.8638   27.4277    2.8607 H   0  0  0  0  0  0  0  0  0  0  0  0
   -3.4067   24.3370    7.4314 H   0  0  0  0  0  0  0  0  0  0  0  0
   -0.4062   25.9420    5.3754 H   0  0  0  0  0  0  0  0  0  0  0  0
    1.4368   24.0812    5.9331 H   0  0  0  0  0  0  0  0  0  0  0  0
    0.6736   22.3833    7.2809 H   0  0  0  0  0  0  0  0  0  0  0  0
   -1.7322   22.5468    8.0017 H   0  0  0  0  0  0  0  0  0  0  0  0
  1  2  1  0
  2  3  1  0
  3  4  1  0
  3  5  1  0
  5  6  1  0
  3  7  1  0
  7  8  1  0
  8  9  1  0
  9 10  1  0
  9 11  1  0
  8 12  1  0
 12 13  1  0
 13 14  1  0
 14 15  1  0
 15 12  1  0
 15 13  1  0
  1 16  1  0
  1 17  1  0
  1 18  1  0
  2 19  1  0
  2 20  1  0
  4 21  1  0
  5 22  1  0
  5 23  1  0
  6 24  1  0
  8 25  1  0
 10 26  1  0
 11 27  1  0
 12 28  1  0
 13 29  1  0
 14 30  1  0
 14 31  1  0
 15 32  1  0
M  END
