
     RDKit          2D

 37 38  0  0  0  0  0  0  0  0999 V2000
   14.4273  -15.1921   -6.8080 C   0  0  0  0  0  0  0  0  0  0  0  0
   13.7783  -16.1249   -5.8288 C   0  0  0  0  0  0  0  0  0  0  0  0
   13.1293  -17.0576   -4.8496 C   0  0  0  0  0  0  0  0  0  0  0  0
   12.4802  -17.9903   -3.8704 C   0  0  0  0  0  0  0  0  0  0  0  0
   12.0700  -19.2680   -3.2000 C   0  0  0  0  0  0  0  0  0  0  0  0
   12.9427  -19.3074   -4.4194 O   0  0  0  0  0  0  0  0  0  0  0  0
   13.0589  -15.9497   -3.8409 C   0  0  0  0  0  0  0  0  0  0  0  0
   13.0051  -15.3892   -2.4505 C   0  0  0  0  0  0  0  0  0  0  0  0
   12.9320  -13.9532   -2.0232 C   0  0  0  0  0  0  0  0  0  0  0  0
   12.8947  -12.7231   -2.8806 C   0  0  0  0  0  0  0  0  0  0  0  0
   12.9211  -12.6250   -4.3772 C   0  0  0  0  0  0  0  0  0  0  0  0
   12.9915  -13.7329   -5.3859 C   0  0  0  0  0  0  0  0  0  0  0  0
   13.0528  -15.2125   -5.1471 C   0  0  0  0  0  0  0  0  0  0  0  0
   13.0793  -15.1145   -6.6438 C   0  0  0  0  0  0  0  0  0  0  0  0
   13.1057  -15.0165   -8.1403 O   0  0  0  0  0  0  0  0  0  0  0  0
   15.0764  -14.2594   -7.7871 H   0  0  0  0  0  0  0  0  0  0  0  0
   14.2954  -13.7171   -6.5693 H   0  0  0  0  0  0  0  0  0  0  0  0
   14.8390  -16.4717   -7.4737 H   0  0  0  0  0  0  0  0  0  0  0  0
   14.1616  -17.4037   -6.5127 H   0  0  0  0  0  0  0  0  0  0  0  0
   13.4832  -14.7602   -5.2804 H   0  0  0  0  0  0  0  0  0  0  0  0
   13.1996  -18.1655   -5.8583 H   0  0  0  0  0  0  0  0  0  0  0  0
   11.7319  -17.1413   -2.8859 H   0  0  0  0  0  0  0  0  0  0  0  0
   11.2397  -18.7185   -2.0780 H   0  0  0  0  0  0  0  0  0  0  0  0
   11.9483  -20.7365   -2.9192 H   0  0  0  0  0  0  0  0  0  0  0  0
   13.0882  -17.0664   -2.8398 H   0  0  0  0  0  0  0  0  0  0  0  0
   13.0274  -16.3982   -1.3407 H   0  0  0  0  0  0  0  0  0  0  0  0
   12.8909  -13.7161   -0.5426 H   0  0  0  0  0  0  0  0  0  0  0  0
   12.8409  -12.1626   -1.4902 H   0  0  0  0  0  0  0  0  0  0  0  0
   12.8288  -11.2256   -2.9370 H   0  0  0  0  0  0  0  0  0  0  0  0
   12.8499  -11.1475   -4.1283 H   0  0  0  0  0  0  0  0  0  0  0  0
   12.9061  -11.7343   -5.5840 H   0  0  0  0  0  0  0  0  0  0  0  0
   12.9622  -12.6162   -6.3870 H   0  0  0  0  0  0  0  0  0  0  0  0
   13.0314  -13.9404   -6.8709 H   0  0  0  0  0  0  0  0  0  0  0  0
   13.1262  -16.5022   -5.9097 H   0  0  0  0  0  0  0  0  0  0  0  0
   13.1529  -16.5866   -6.9222 H   0  0  0  0  0  0  0  0  0  0  0  0
   13.0083  -13.6193   -6.5470 H   0  0  0  0  0  0  0  0  0  0  0  0
   13.1767  -16.1516   -9.1182 H   0  0  0  0  0  0  0  0  0  0  0  0
  1  2  1  0
  2  3  1  0
  3  4  1  0
  4  5  1  0
  5  6  1  0
  3  7  1  0
  7  8  1  0
  8  9  2  0
  9 10  1  0
 10 11  1  0
 11 12  1  0
 12 13  1  0
 13 14  1  0
 14 15  1  0
  6  4  1  0
 13  7  1  0
  1 16  1  0
  1 17  1  0
  1 18  1  0
  2 19  1  0
  2 20  1  0
  3 21  1  0
  4 22  1  0
  5 23  1  0
  5 24  1  0
  7 25  1  0
  8 26  1  0
  9 27  1  0
 10 28  1  0
 10 29  1  0
 11 30  1  0
 11 31  1  0
 12 32  1  0
 12 33  1  0
 13 34  1  0
 14 35  1  0
 14 36  1  0
 15 37  1  0
M  END
