
     RDKit          2D

 40 41  0  0  0  0  0  0  0  0999 V2000
   17.3072  -20.1280   -7.8173 C   0  0  0  0  0  0  0  0  0  0  0  0
   17.8274  -21.1173   -6.8171 C   0  0  0  0  0  0  0  0  0  0  0  0
   18.3372  -21.9787   -7.9343 N   0  0  0  0  0  0  0  0  0  0  0  0
   18.1415  -21.5526   -9.3591 C   0  0  0  0  0  0  0  0  0  0  0  0
   17.9459  -21.1265  -10.7839 N   0  0  0  0  0  0  0  0  0  0  0  0
   18.9835  -20.2835  -11.4640 N   0  0  0  0  0  0  0  0  0  0  0  0
   16.7124  -21.5435  -11.5288 C   0  0  0  0  0  0  0  0  0  0  0  0
   16.5167  -21.1174  -12.9536 N   0  0  0  0  0  0  0  0  0  0  0  0
   15.2832  -21.5343  -13.6984 C   0  0  0  0  0  0  0  0  0  0  0  0
   14.2905  -21.6755  -14.8140 C   0  0  0  0  0  0  0  0  0  0  0  0
   15.5478  -20.8852  -15.0245 C   0  0  0  0  0  0  0  0  0  0  0  0
   18.3477  -22.1068   -5.8169 C   0  0  0  0  0  0  0  0  0  0  0  0
   18.6620  -22.7420   -4.4949 C   0  0  0  0  0  0  0  0  0  0  0  0
   17.9352  -21.4307   -4.5430 C   0  0  0  0  0  0  0  0  0  0  0  0
   17.7532  -21.1798   -3.0753 C   0  0  0  0  0  0  0  0  0  0  0  0
   17.2717  -20.2066   -5.1008 C   0  0  0  0  0  0  0  0  0  0  0  0
   16.7869  -19.1386   -8.8175 H   0  0  0  0  0  0  0  0  0  0  0  0
   16.7968  -19.2670   -6.7001 H   0  0  0  0  0  0  0  0  0  0  0  0
   17.4613  -20.3667   -8.5621 H   0  0  0  0  0  0  0  0  0  0  0  0
   17.2070  -20.0422   -5.9751 H   0  0  0  0  0  0  0  0  0  0  0  0
   19.0595  -23.2873   -7.8079 H   0  0  0  0  0  0  0  0  0  0  0  0
   17.4360  -21.9065   -9.4703 H   0  0  0  0  0  0  0  0  0  0  0  0
   19.4552  -20.8295   -9.3233 H   0  0  0  0  0  0  0  0  0  0  0  0
   20.2171  -19.8666  -10.7191 H   0  0  0  0  0  0  0  0  0  0  0  0
   18.7879  -19.8575  -12.8888 H   0  0  0  0  0  0  0  0  0  0  0  0
   15.6747  -22.3865  -10.8487 H   0  0  0  0  0  0  0  0  0  0  0  0
   14.5903  -22.3283  -12.6310 H   0  0  0  0  0  0  0  0  0  0  0  0
   13.2527  -22.5186  -14.1339 H   0  0  0  0  0  0  0  0  0  0  0  0
   13.6581  -21.5239  -16.1657 H   0  0  0  0  0  0  0  0  0  0  0  0
   15.3521  -20.4591  -16.4493 H   0  0  0  0  0  0  0  0  0  0  0  0
   16.8731  -20.2428  -14.7403 H   0  0  0  0  0  0  0  0  0  0  0  0
   18.9881  -23.2193   -6.5928 H   0  0  0  0  0  0  0  0  0  0  0  0
   19.3644  -23.9823   -4.9623 H   0  0  0  0  0  0  0  0  0  0  0  0
   18.8203  -23.1029   -3.0476 H   0  0  0  0  0  0  0  0  0  0  0  0
   17.5711  -20.9290   -1.6077 H   0  0  0  0  0  0  0  0  0  0  0  0
   17.0295  -19.8721   -3.2018 H   0  0  0  0  0  0  0  0  0  0  0  0
   18.4325  -22.4265   -2.5910 H   0  0  0  0  0  0  0  0  0  0  0  0
   16.6082  -18.9824   -5.6585 H   0  0  0  0  0  0  0  0  0  0  0  0
   16.9019  -19.5844   -3.7870 H   0  0  0  0  0  0  0  0  0  0  0  0
   17.3937  -20.3727   -6.5866 H   0  0  0  0  0  0  0  0  0  0  0  0
  1  2  1  0
  2  3  1  0
  3  4  1  0
  4  5  1  0
  5  6  1  0
  5  7  1  0
  7  8  2  3
  8  9  1  0
  9 10  1  0
 10 11  1  0
  2 12  1  0
 12 13  1  0
 13 14  1  0
 14 15  1  0
 14 16  1  0
 11  9  1  0
 14 12  1  0
  1 17  1  0
  1 18  1  0
  1 19  1  0
  2 20  1  6
  3 21  1  0
  4 22  1  0
  4 23  1  0
  6 24  1  0
  6 25  1  0
  7 26  1  0
  9 27  1  0
 10 28  1  0
 10 29  1  0
 11 30  1  0
 11 31  1  0
 12 32  1  6
 13 33  1  0
 13 34  1  0
 15 35  1  0
 15 36  1  0
 15 37  1  0
 16 38  1  0
 16 39  1  0
 16 40  1  0
M  END
