
     RDKit          2D

 75 80  0  0  0  0  0  0  0  0999 V2000
   21.2293  -17.4156  -15.8143 C   0  0  0  0  0  0  0  0  0  0  0  0
   19.9965  -18.1887  -15.4502 C   0  0  0  0  0  0  0  0  0  0  0  0
   18.7637  -18.9618  -15.0861 C   0  0  0  0  0  0  0  0  0  0  0  0
   19.2740  -19.6118  -16.3380 C   0  0  0  0  0  0  0  0  0  0  0  0
   18.8291  -20.7605  -17.1939 C   0  0  0  0  0  0  0  0  0  0  0  0
   17.6896  -21.7350  -17.1524 C   0  0  0  0  0  0  0  0  0  0  0  0
   16.5230  -21.9646  -16.2378 C   0  0  0  0  0  0  0  0  0  0  0  0
   16.2341  -23.0734  -17.2057 C   0  0  0  0  0  0  0  0  0  0  0  0
   15.9452  -24.1824  -18.1737 C   0  0  0  0  0  0  0  0  0  0  0  0
   15.6564  -25.2913  -19.1416 C   0  0  0  0  0  0  0  0  0  0  0  0
   14.9695  -26.4624  -19.7792 C   0  0  0  0  0  0  0  0  0  0  0  0
   14.4100  -25.8556  -18.5268 C   0  0  0  0  0  0  0  0  0  0  0  0
   13.2136  -26.7370  -18.3222 C   0  0  0  0  0  0  0  0  0  0  0  0
   12.0172  -27.6185  -18.1177 C   0  0  0  0  0  0  0  0  0  0  0  0
   10.8209  -28.4998  -17.9132 C   0  0  0  0  0  0  0  0  0  0  0  0
    9.8899  -28.2460  -16.7648 C   0  0  0  0  0  0  0  0  0  0  0  0
    9.6245  -29.3812  -17.7086 C   0  0  0  0  0  0  0  0  0  0  0  0
   10.5555  -29.6351  -18.8569 C   0  0  0  0  0  0  0  0  0  0  0  0
   15.2810  -22.4836  -15.5760 C   0  0  0  0  0  0  0  0  0  0  0  0
   16.0127  -21.3146  -14.9860 C   0  0  0  0  0  0  0  0  0  0  0  0
   14.9142  -21.3923  -13.9676 O   0  0  0  0  0  0  0  0  0  0  0  0
   16.4576  -20.1659  -14.1301 C   0  0  0  0  0  0  0  0  0  0  0  0
   15.9673  -19.4991  -12.8792 F   0  0  0  0  0  0  0  0  0  0  0  0
   17.5972  -19.1913  -14.1715 C   0  0  0  0  0  0  0  0  0  0  0  0
   19.7985  -17.3085  -14.2518 C   0  0  0  0  0  0  0  0  0  0  0  0
   21.0469  -16.7000  -14.8186 C   0  0  0  0  0  0  0  0  0  0  0  0
   21.6877  -15.5287  -14.1347 C   0  0  0  0  0  0  0  0  0  0  0  0
   21.0800  -14.9661  -12.8840 C   0  0  0  0  0  0  0  0  0  0  0  0
   19.8316  -15.5747  -12.3173 C   0  0  0  0  0  0  0  0  0  0  0  0
   19.1909  -16.7458  -13.0011 C   0  0  0  0  0  0  0  0  0  0  0  0
   17.9425  -17.3543  -12.4343 C   0  0  0  0  0  0  0  0  0  0  0  0
   16.6941  -17.9629  -11.8676 O   0  0  0  0  0  0  0  0  0  0  0  0
   22.4620  -16.6424  -16.1784 H   0  0  0  0  0  0  0  0  0  0  0  0
   21.4286  -18.2971  -17.0114 H   0  0  0  0  0  0  0  0  0  0  0  0
   21.3342  -16.3731  -14.7408 H   0  0  0  0  0  0  0  0  0  0  0  0
   20.3433  -18.9680  -16.6840 H   0  0  0  0  0  0  0  0  0  0  0  0
   18.7507  -18.4415  -14.4823 H   0  0  0  0  0  0  0  0  0  0  0  0
   20.3673  -19.5443  -17.3627 H   0  0  0  0  0  0  0  0  0  0  0  0
   20.4606  -18.7105  -16.5102 H   0  0  0  0  0  0  0  0  0  0  0  0
   19.1759  -21.5397  -18.4278 H   0  0  0  0  0  0  0  0  0  0  0  0
   20.0462  -20.3733  -17.9804 H   0  0  0  0  0  0  0  0  0  0  0  0
   17.0866  -22.9045  -17.8727 H   0  0  0  0  0  0  0  0  0  0  0  0
   18.3534  -22.2430  -18.3979 H   0  0  0  0  0  0  0  0  0  0  0  0
   14.9968  -23.5873  -16.5312 H   0  0  0  0  0  0  0  0  0  0  0  0
   17.4010  -22.8300  -18.1163 H   0  0  0  0  0  0  0  0  0  0  0  0
   14.7775  -24.4249  -17.2641 H   0  0  0  0  0  0  0  0  0  0  0  0
   17.1573  -23.8019  -18.9713 H   0  0  0  0  0  0  0  0  0  0  0  0
   16.8025  -25.1120  -20.0926 H   0  0  0  0  0  0  0  0  0  0  0  0
   15.8770  -26.6900  -20.9518 H   0  0  0  0  0  0  0  0  0  0  0  0
   14.0657  -27.5980  -20.1581 H   0  0  0  0  0  0  0  0  0  0  0  0
   14.1159  -25.0390  -17.3034 H   0  0  0  0  0  0  0  0  0  0  0  0
   12.5831  -25.6817  -17.4626 H   0  0  0  0  0  0  0  0  0  0  0  0
   13.6936  -27.8919  -19.1505 H   0  0  0  0  0  0  0  0  0  0  0  0
   11.6680  -26.8559  -16.8741 H   0  0  0  0  0  0  0  0  0  0  0  0
   12.3664  -28.3811  -19.3613 H   0  0  0  0  0  0  0  0  0  0  0  0
   10.5593  -27.0553  -16.1451 H   0  0  0  0  0  0  0  0  0  0  0  0
    8.7263  -28.4056  -15.8316 H   0  0  0  0  0  0  0  0  0  0  0  0
    8.4281  -30.2626  -17.5040 H   0  0  0  0  0  0  0  0  0  0  0  0
    9.8861  -30.8257  -19.4767 H   0  0  0  0  0  0  0  0  0  0  0  0
   11.7190  -29.4755  -19.7901 H   0  0  0  0  0  0  0  0  0  0  0  0
   14.7956  -23.6396  -16.3994 H   0  0  0  0  0  0  0  0  0  0  0  0
   14.1576  -22.6121  -14.5903 H   0  0  0  0  0  0  0  0  0  0  0  0
   14.7269  -20.5055  -12.7723 H   0  0  0  0  0  0  0  0  0  0  0  0
   15.2405  -20.5531  -13.3436 H   0  0  0  0  0  0  0  0  0  0  0  0
   17.9176  -18.0729  -13.2247 H   0  0  0  0  0  0  0  0  0  0  0  0
   16.8093  -18.8159  -12.9517 H   0  0  0  0  0  0  0  0  0  0  0  0
   18.6189  -18.2228  -14.1012 H   0  0  0  0  0  0  0  0  0  0  0  0
   22.2864  -16.1994  -15.4990 H   0  0  0  0  0  0  0  0  0  0  0  0
   21.1150  -17.6561  -15.9724 H   0  0  0  0  0  0  0  0  0  0  0  0
   22.9035  -14.6961  -14.4144 H   0  0  0  0  0  0  0  0  0  0  0  0
   21.7208  -13.7949  -12.2002 H   0  0  0  0  0  0  0  0  0  0  0  0
   19.2240  -15.0119  -11.0665 H   0  0  0  0  0  0  0  0  0  0  0  0
   17.9597  -16.3511  -11.3195 H   0  0  0  0  0  0  0  0  0  0  0  0
   17.6238  -18.4751  -13.3791 H   0  0  0  0  0  0  0  0  0  0  0  0
   16.0865  -17.4003  -10.6169 H   0  0  0  0  0  0  0  0  0  0  0  0
  1  2  1  0
  2  3  1  0
  3  4  1  0
  4  5  1  0
  5  6  1  0
  6  7  1  0
  7  8  1  0
  8  9  1  0
  9 10  1  0
 10 11  1  0
 11 12  1  0
 12 13  1  0
 13 14  1  0
 14 15  1  0
 15 16  1  0
 16 17  1  0
 17 18  1  0
  7 19  1  0
 19 20  1  0
 20 21  1  0
 20 22  1  0
 22 23  1  0
 22 24  1  0
  2 25  1  0
 25 26  1  0
 26 27  1  0
 27 28  2  0
 28 29  1  0
 29 30  2  0
 30 31  1  0
 31 32  1  0
 24  3  1  0
 30 25  1  0
 20  7  1  0
 12 10  1  0
 17 15  1  0
 18 15  1  0
  1 33  1  0
  1 34  1  0
  1 35  1  0
  2 36  1  0
  3 37  1  0
  4 38  1  0
  4 39  1  0
  5 40  1  0
  5 41  1  0
  6 42  1  0
  6 43  1  0
  8 44  1  0
  8 45  1  0
  9 46  1  0
  9 47  1  0
 10 48  1  0
 11 49  1  0
 11 50  1  0
 12 51  1  0
 13 52  1  0
 13 53  1  0
 14 54  1  0
 14 55  1  0
 16 56  1  0
 16 57  1  0
 17 58  1  0
 18 59  1  0
 18 60  1  0
 19 61  1  0
 19 62  1  0
 21 63  1  0
 22 64  1  0
 24 65  1  0
 24 66  1  0
 25 67  1  0
 26 68  1  0
 26 69  1  0
 27 70  1  0
 28 71  1  0
 29 72  1  0
 31 73  1  0
 31 74  1  0
 32 75  1  0
M  END
