
     RDKit          2D

113118  0  0  0  0  0  0  0  0999 V2000
   -0.5862   19.4539   11.8863 C   0  0  0  0  0  0  0  0  0  0  0  0
    0.3289   18.3729   12.3799 C   0  0  0  0  0  0  0  0  0  0  0  0
   -0.0476   17.2526   13.3037 C   0  0  0  0  0  0  0  0  0  0  0  0
   -0.7080   16.2656   14.2200 C   0  0  0  0  0  0  0  0  0  0  0  0
    1.1720   16.4095   13.5311 C   0  0  0  0  0  0  0  0  0  0  0  0
    2.3023   17.0087   12.7479 C   0  0  0  0  0  0  0  0  0  0  0  0
    3.5981   17.3700   12.0844 C   0  0  0  0  0  0  0  0  0  0  0  0
    4.8940   17.7313   11.4209 C   0  0  0  0  0  0  0  0  0  0  0  0
    1.7812   18.2220   12.0364 C   0  0  0  0  0  0  0  0  0  0  0  0
    1.5538   19.4580   11.2173 C   0  0  0  0  0  0  0  0  0  0  0  0
    2.6841   20.0571   10.4340 C   0  0  0  0  0  0  0  0  0  0  0  0
    2.4567   21.2929    9.6149 O   0  0  0  0  0  0  0  0  0  0  0  0
    1.0990   21.9297    9.5791 O   0  0  0  0  0  0  0  0  0  0  0  0
    0.8716   23.1656    8.7599 C   0  0  0  0  0  0  0  0  0  0  0  0
    0.6442   24.4014    7.9409 N   0  0  0  0  0  0  0  0  0  0  0  0
   -0.7135   25.0381    7.9050 C   0  0  0  0  0  0  0  0  0  0  0  0
   -2.0712   25.6748    7.8691 N   0  0  0  0  0  0  0  0  0  0  0  0
   -2.4318   26.7291    8.8733 C   0  0  0  0  0  0  0  0  0  0  0  0
   -2.8929   27.5402   10.0479 C   0  0  0  0  0  0  0  0  0  0  0  0
   -2.6218   28.9849    9.7487 C   0  0  0  0  0  0  0  0  0  0  0  0
   -3.2199   29.2152   11.1048 C   0  0  0  0  0  0  0  0  0  0  0  0
   -2.4756   30.4776    9.7330 C   0  0  0  0  0  0  0  0  0  0  0  0
   -1.9930   29.0666    8.3892 C   0  0  0  0  0  0  0  0  0  0  0  0
   -1.8757   27.6725    7.8482 C   0  0  0  0  0  0  0  0  0  0  0  0
   -1.2684   28.3543    6.6581 C   0  0  0  0  0  0  0  0  0  0  0  0
    4.0418   19.4204   10.4699 C   0  0  0  0  0  0  0  0  0  0  0  0
    5.3995   18.7837   10.5058 C   0  0  0  0  0  0  0  0  0  0  0  0
    4.5713   20.4989    9.5718 C   0  0  0  0  0  0  0  0  0  0  0  0
    5.1008   21.5774    8.6738 C   0  0  0  0  0  0  0  0  0  0  0  0
    3.7389   22.2041    8.6234 C   0  0  0  0  0  0  0  0  0  0  0  0
    4.2684   23.2825    7.7254 C   0  0  0  0  0  0  0  0  0  0  0  0
    5.6303   22.6559    7.7757 C   0  0  0  0  0  0  0  0  0  0  0  0
    6.8934   23.1083    7.1050 C   0  0  0  0  0  0  0  0  0  0  0  0
    8.2518   23.3825    6.5311 C   0  0  0  0  0  0  0  0  0  0  0  0
    9.0178   22.2317    7.1136 C   0  0  0  0  0  0  0  0  0  0  0  0
    7.1066   24.2992    6.2183 N   0  0  0  0  0  0  0  0  0  0  0  0
    6.1092   25.3317    5.7833 C   0  0  0  0  0  0  0  0  0  0  0  0
    7.3724   25.7842    5.1125 N   0  0  0  0  0  0  0  0  0  0  0  0
    4.6525   25.4285    6.1275 C   0  0  0  0  0  0  0  0  0  0  0  0
    3.8332   24.5164    6.9918 C   0  0  0  0  0  0  0  0  0  0  0  0
    2.8360   25.5490    6.5568 C   0  0  0  0  0  0  0  0  0  0  0  0
    3.7146   26.4175    5.7059 C   0  0  0  0  0  0  0  0  0  0  0  0
    4.5931   27.2859    4.8551 C   0  0  0  0  0  0  0  0  0  0  0  0
    1.5336   26.2800    6.4172 C   0  0  0  0  0  0  0  0  0  0  0  0
    1.6111   25.0392    7.2565 C   0  0  0  0  0  0  0  0  0  0  0  0
   -2.0227   19.4757   12.3178 H   0  0  0  0  0  0  0  0  0  0  0  0
   -0.2344   20.5831   10.9637 H   0  0  0  0  0  0  0  0  0  0  0  0
   -1.4053   17.8894   13.2678 H   0  0  0  0  0  0  0  0  0  0  0  0
   -1.3685   15.2786   15.1363 H   0  0  0  0  0  0  0  0  0  0  0  0
    0.5871   15.5205   14.3509 H   0  0  0  0  0  0  0  0  0  0  0  0
   -1.4341   16.5947   14.2102 H   0  0  0  0  0  0  0  0  0  0  0  0
    2.2003   15.3970   13.9402 H   0  0  0  0  0  0  0  0  0  0  0  0
    0.7624   15.9214   14.0101 H   0  0  0  0  0  0  0  0  0  0  0  0
    3.0943   15.8709   13.3207 H   0  0  0  0  0  0  0  0  0  0  0  0
    2.9389   18.5540   11.4414 H   0  0  0  0  0  0  0  0  0  0  0  0
    4.2575   16.1860   12.7274 H   0  0  0  0  0  0  0  0  0  0  0  0
    6.2605   17.9452   10.8405 H   0  0  0  0  0  0  0  0  0  0  0  0
    5.5525   16.5454   12.0613 H   0  0  0  0  0  0  0  0  0  0  0  0
    4.5688   18.9692   10.6390 H   0  0  0  0  0  0  0  0  0  0  0  0
    3.1860   18.3297   11.5216 H   0  0  0  0  0  0  0  0  0  0  0  0
    0.2697   20.2190   11.0689 H   0  0  0  0  0  0  0  0  0  0  0  0
    2.2697   23.2950    8.2323 H   0  0  0  0  0  0  0  0  0  0  0  0
   -0.5649   23.1869    9.1910 H   0  0  0  0  0  0  0  0  0  0  0  0
    1.5195   25.2443    7.0615 H   0  0  0  0  0  0  0  0  0  0  0  0
   -0.3000   26.3123    7.2300 H   0  0  0  0  0  0  0  0  0  0  0  0
   -1.2967   23.8326    8.5807 H   0  0  0  0  0  0  0  0  0  0  0  0
   -2.9398   25.1413    6.7687 H   0  0  0  0  0  0  0  0  0  0  0  0
   -2.9125   25.5653    9.6884 H   0  0  0  0  0  0  0  0  0  0  0  0
   -3.2773   26.2068   10.6174 H   0  0  0  0  0  0  0  0  0  0  0  0
   -3.4705   27.8982   11.3851 H   0  0  0  0  0  0  0  0  0  0  0  0
   -3.8180   29.4455   12.4610 H   0  0  0  0  0  0  0  0  0  0  0  0
   -3.1047   30.7107   11.1039 H   0  0  0  0  0  0  0  0  0  0  0  0
   -3.4809   27.7757   11.4363 H   0  0  0  0  0  0  0  0  0  0  0  0
   -2.3295   31.9704    9.7174 H   0  0  0  0  0  0  0  0  0  0  0  0
   -3.0673   30.7334   11.0875 H   0  0  0  0  0  0  0  0  0  0  0  0
   -1.8484   30.5858    8.3749 H   0  0  0  0  0  0  0  0  0  0  0  0
   -1.9012   30.5602    8.4926 H   0  0  0  0  0  0  0  0  0  0  0  0
   -1.3723   29.6299    7.1453 H   0  0  0  0  0  0  0  0  0  0  0  0
   -1.5618   26.5299    6.9285 H   0  0  0  0  0  0  0  0  0  0  0  0
   -0.6612   29.0360    5.4679 H   0  0  0  0  0  0  0  0  0  0  0  0
   -0.2554   27.2538    6.5446 H   0  0  0  0  0  0  0  0  0  0  0  0
   -2.1998   29.5296    6.6256 H   0  0  0  0  0  0  0  0  0  0  0  0
    3.5123   18.3419   11.3679 H   0  0  0  0  0  0  0  0  0  0  0  0
    6.8106   18.2808   10.4286 H   0  0  0  0  0  0  0  0  0  0  0  0
    5.2222   17.6016   11.4121 H   0  0  0  0  0  0  0  0  0  0  0  0
    6.0823   19.7576    9.5919 H   0  0  0  0  0  0  0  0  0  0  0  0
    3.3336   21.3461    9.5542 H   0  0  0  0  0  0  0  0  0  0  0  0
    5.9381   19.9145    9.3706 H   0  0  0  0  0  0  0  0  0  0  0  0
    6.4627   20.9507    8.7242 H   0  0  0  0  0  0  0  0  0  0  0  0
    2.4518   22.9575    8.4639 H   0  0  0  0  0  0  0  0  0  0  0  0
    2.7565   21.4219    9.4437 H   0  0  0  0  0  0  0  0  0  0  0  0
    2.8129   23.3668    8.0779 H   0  0  0  0  0  0  0  0  0  0  0  0
    6.6169   21.6163    8.2187 H   0  0  0  0  0  0  0  0  0  0  0  0
    7.5316   21.9153    7.7528 H   0  0  0  0  0  0  0  0  0  0  0  0
    9.3444   24.0563    5.7549 H   0  0  0  0  0  0  0  0  0  0  0  0
    9.7837   21.0810    7.6959 H   0  0  0  0  0  0  0  0  0  0  0  0
   10.2621   22.7127    6.4277 H   0  0  0  0  0  0  0  0  0  0  0  0
    7.8761   21.6140    7.8652 H   0  0  0  0  0  0  0  0  0  0  0  0
    6.0246   26.5731    4.9455 H   0  0  0  0  0  0  0  0  0  0  0  0
    7.3677   27.0171    4.2582 H   0  0  0  0  0  0  0  0  0  0  0  0
    8.6402   25.0038    5.2962 H   0  0  0  0  0  0  0  0  0  0  0  0
    4.6879   26.6557    5.2657 H   0  0  0  0  0  0  0  0  0  0  0  0
    3.4593   26.2975    5.8613 H   0  0  0  0  0  0  0  0  0  0  0  0
    2.5702   24.0640    7.6625 H   0  0  0  0  0  0  0  0  0  0  0  0
    2.6649   27.4171    5.3200 H   0  0  0  0  0  0  0  0  0  0  0  0
    5.0580   25.7539    5.7759 H   0  0  0  0  0  0  0  0  0  0  0  0
    5.4717   28.1543    4.0043 H   0  0  0  0  0  0  0  0  0  0  0  0
    3.4251   28.1801    4.5617 H   0  0  0  0  0  0  0  0  0  0  0  0
    5.8595   26.5042    5.0426 H   0  0  0  0  0  0  0  0  0  0  0  0
    1.7863   27.4602    5.5267 H   0  0  0  0  0  0  0  0  0  0  0  0
    0.1156   26.7648    6.4811 H   0  0  0  0  0  0  0  0  0  0  0  0
    0.1501   25.2532    7.5205 H   0  0  0  0  0  0  0  0  0  0  0  0
    2.0148   23.8015    8.0016 H   0  0  0  0  0  0  0  0  0  0  0  0
  1  2  2  3
  2  3  1  0
  3  4  1  0
  3  5  1  0
  5  6  1  0
  6  7  1  0
  7  8  1  0
  6  9  1  0
  9 10  1  0
 10 11  2  3
 11 12  1  0
 12 13  1  0
 13 14  1  0
 14 15  1  0
 15 16  1  0
 16 17  1  0
 17 18  1  0
 18 19  1  0
 19 20  1  0
 20 21  1  0
 20 22  1  0
 20 23  1  0
 23 24  1  0
 24 25  1  0
 11 26  1  0
 26 27  1  0
 26 28  1  0
 28 29  1  0
 29 30  1  0
 30 31  1  0
 31 32  1  0
 32 33  1  0
 33 34  1  0
 34 35  1  0
 34 36  1  0
 36 37  1  0
 37 38  1  0
 37 39  1  0
 39 40  1  0
 40 41  1  0
 41 42  1  0
 42 43  1  0
 41 44  1  0
 44 45  1  0
  9  2  1  0
 24 18  1  0
 32 29  1  0
 36 33  1  0
 45 41  1  0
 40 31  1  0
  1 46  1  0
  1 47  1  0
  3 48  1  1
  4 49  1  0
  4 50  1  0
  4 51  1  0
  5 52  1  0
  5 53  1  0
  6 54  1  1
  7 55  1  0
  7 56  1  0
  8 57  1  0
  8 58  1  0
  8 59  1  0
  9 60  1  6
 10 61  1  0
 14 62  1  0
 14 63  1  0
 15 64  1  0
 16 65  1  0
 16 66  1  0
 17 67  1  0
 18 68  1  1
 19 69  1  0
 19 70  1  0
 21 71  1  0
 21 72  1  0
 21 73  1  0
 22 74  1  0
 22 75  1  0
 22 76  1  0
 23 77  1  0
 23 78  1  0
 24 79  1  6
 25 80  1  0
 25 81  1  0
 25 82  1  0
 26 83  1  6
 27 84  1  0
 27 85  1  0
 27 86  1  0
 28 87  1  0
 28 88  1  0
 29 89  1  6
 30 90  1  0
 30 91  1  0
 31 92  1  1
 32 93  1  6
 33 94  1  6
 34 95  1  1
 35 96  1  0
 35 97  1  0
 35 98  1  0
 37 99  1  1
 38100  1  0
 38101  1  0
 39102  1  0
 39103  1  0
 40104  1  6
 42105  1  0
 42106  1  0
 43107  1  0
 43108  1  0
 43109  1  0
 44110  1  0
 44111  1  0
 45112  1  0
 45113  1  0
M  END
