
     RDKit          2D

 81 82  0  0  0  0  0  0  0  0999 V2000
    7.1475   19.7798    4.5996 C   0  0  0  0  0  0  0  0  0  0  0  0
    5.9148   20.0012    3.7741 C   0  0  0  0  0  0  0  0  0  0  0  0
    4.6821   20.2227    2.9486 C   0  0  0  0  0  0  0  0  0  0  0  0
    4.3641   21.6381    3.3298 C   0  0  0  0  0  0  0  0  0  0  0  0
    3.6563   22.9597    3.3783 C   0  0  0  0  0  0  0  0  0  0  0  0
    2.9485   24.2813    3.4268 C   0  0  0  0  0  0  0  0  0  0  0  0
    2.2408   25.6029    3.4754 C   0  0  0  0  0  0  0  0  0  0  0  0
    1.0080   25.8243    2.6499 O   0  0  0  0  0  0  0  0  0  0  0  0
    2.7656   26.7031    4.3495 C   0  0  0  0  0  0  0  0  0  0  0  0
    3.2905   27.8034    5.2235 C   0  0  0  0  0  0  0  0  0  0  0  0
    3.8154   28.9036    6.0976 C   0  0  0  0  0  0  0  0  0  0  0  0
    4.3403   30.0039    6.9717 C   0  0  0  0  0  0  0  0  0  0  0  0
    4.8652   31.1041    7.8457 C   0  0  0  0  0  0  0  0  0  0  0  0
    5.3900   32.2043    8.7198 C   0  0  0  0  0  0  0  0  0  0  0  0
    5.9150   33.3045    9.5939 C   0  0  0  0  0  0  0  0  0  0  0  0
    7.1440   33.0810   10.4242 O   0  0  0  0  0  0  0  0  0  0  0  0
    4.2729   33.0970    8.2670 C   0  0  0  0  0  0  0  0  0  0  0  0
    4.9843   34.0258    9.2058 C   0  0  0  0  0  0  0  0  0  0  0  0
    4.4661   35.4169    9.4204 C   0  0  0  0  0  0  0  0  0  0  0  0
    3.2366   35.8794    8.6962 C   0  0  0  0  0  0  0  0  0  0  0  0
    2.1194   36.7721    8.2435 O   0  0  0  0  0  0  0  0  0  0  0  0
    2.5252   34.9506    7.7574 N   0  0  0  0  0  0  0  0  0  0  0  0
    3.0434   33.5595    7.5429 C   0  0  0  0  0  0  0  0  0  0  0  0
    3.4877   20.9089    2.3550 C   0  0  0  0  0  0  0  0  0  0  0  0
    2.9628   19.8087    1.4810 C   0  0  0  0  0  0  0  0  0  0  0  0
    2.4379   18.7084    0.6069 C   0  0  0  0  0  0  0  0  0  0  0  0
    1.9130   17.6082   -0.2672 C   0  0  0  0  0  0  0  0  0  0  0  0
    1.3175   19.5992    0.1584 C   0  0  0  0  0  0  0  0  0  0  0  0
    0.1971   20.4900   -0.2900 C   0  0  0  0  0  0  0  0  0  0  0  0
   -0.9234   21.3808   -0.7385 N   0  0  0  0  0  0  0  0  0  0  0  0
   -0.7415   22.2717   -1.9316 C   0  0  0  0  0  0  0  0  0  0  0  0
   -0.5597   23.1624   -3.1247 N   0  0  0  0  0  0  0  0  0  0  0  0
    8.3802   19.5584    5.4252 H   0  0  0  0  0  0  0  0  0  0  0  0
    7.2359   18.3718    4.0900 H   0  0  0  0  0  0  0  0  0  0  0  0
    7.0591   21.1878    5.1092 H   0  0  0  0  0  0  0  0  0  0  0  0
    5.9600   21.2285    4.3347 H   0  0  0  0  0  0  0  0  0  0  0  0
    6.0156   18.6002    3.2478 H   0  0  0  0  0  0  0  0  0  0  0  0
    4.7231   18.8378    2.3734 H   0  0  0  0  0  0  0  0  0  0  0  0
    5.3094   22.0319    4.2094 H   0  0  0  0  0  0  0  0  0  0  0  0
    2.5622   22.6168    2.4111 H   0  0  0  0  0  0  0  0  0  0  0  0
    4.6717   23.4674    4.3587 H   0  0  0  0  0  0  0  0  0  0  0  0
    1.9338   23.7739    2.4457 H   0  0  0  0  0  0  0  0  0  0  0  0
    3.9633   24.7887    4.4081 H   0  0  0  0  0  0  0  0  0  0  0  0
    3.8857   25.8121    4.7984 H   0  0  0  0  0  0  0  0  0  0  0  0
    1.6455   27.5942    3.9005 H   0  0  0  0  0  0  0  0  0  0  0  0
    2.1735   28.6962    4.7705 H   0  0  0  0  0  0  0  0  0  0  0  0
    4.4075   26.9105    5.6766 H   0  0  0  0  0  0  0  0  0  0  0  0
    4.9396   28.0150    6.5410 H   0  0  0  0  0  0  0  0  0  0  0  0
    2.6912   29.7922    5.6542 H   0  0  0  0  0  0  0  0  0  0  0  0
    3.2209   30.8953    6.5217 H   0  0  0  0  0  0  0  0  0  0  0  0
    5.4596   29.1124    7.4216 H   0  0  0  0  0  0  0  0  0  0  0  0
    4.3370   31.5212    7.2699 H   0  0  0  0  0  0  0  0  0  0  0  0
    5.6561   30.1016    8.6327 H   0  0  0  0  0  0  0  0  0  0  0  0
    6.5073   31.3116    9.1725 H   0  0  0  0  0  0  0  0  0  0  0  0
    5.6821   34.0522    9.7430 H   0  0  0  0  0  0  0  0  0  0  0  0
    3.9976   32.4204    7.7660 H   0  0  0  0  0  0  0  0  0  0  0  0
    5.5230   34.2950    9.7281 H   0  0  0  0  0  0  0  0  0  0  0  0
    6.0404   33.0230    9.5648 H   0  0  0  0  0  0  0  0  0  0  0  0
    4.3625   36.8163    9.9504 H   0  0  0  0  0  0  0  0  0  0  0  0
    5.6596   35.4406   10.3286 H   0  0  0  0  0  0  0  0  0  0  0  0
    3.5600   37.1182    9.4777 H   0  0  0  0  0  0  0  0  0  0  0  0
    2.0158   38.1715    8.7735 H   0  0  0  0  0  0  0  0  0  0  0  0
    1.2957   35.4131    7.0333 H   0  0  0  0  0  0  0  0  0  0  0  0
    2.9963   32.1976    6.9158 H   0  0  0  0  0  0  0  0  0  0  0  0
    1.8498   33.5358    6.6346 H   0  0  0  0  0  0  0  0  0  0  0  0
    2.3963   21.8561    1.9527 H   0  0  0  0  0  0  0  0  0  0  0  0
    2.0572   20.8920    0.9748 H   0  0  0  0  0  0  0  0  0  0  0  0
    3.8684   18.7253    1.9871 H   0  0  0  0  0  0  0  0  0  0  0  0
    3.5583   17.8176    1.0553 H   0  0  0  0  0  0  0  0  0  0  0  0
    1.3881   16.5080   -1.1412 H   0  0  0  0  0  0  0  0  0  0  0  0
    3.0349   16.7182    0.1794 H   0  0  0  0  0  0  0  0  0  0  0  0
    0.7356   18.3574   -0.8170 H   0  0  0  0  0  0  0  0  0  0  0  0
    0.6620   18.6170   -0.7665 H   0  0  0  0  0  0  0  0  0  0  0  0
    1.6998   20.7986    0.9740 H   0  0  0  0  0  0  0  0  0  0  0  0
   -0.3202   19.3943   -1.1742 H   0  0  0  0  0  0  0  0  0  0  0  0
    0.7143   21.5858    0.5942 H   0  0  0  0  0  0  0  0  0  0  0  0
   -2.2255   21.3807    0.0059 H   0  0  0  0  0  0  0  0  0  0  0  0
   -1.2555   21.1811   -2.8241 H   0  0  0  0  0  0  0  0  0  0  0  0
   -0.2276   23.3621   -1.0391 H   0  0  0  0  0  0  0  0  0  0  0  0
   -1.6802   24.0531   -3.5733 H   0  0  0  0  0  0  0  0  0  0  0  0
    0.7424   23.1624   -3.8692 H   0  0  0  0  0  0  0  0  0  0  0  0
  1  2  1  0
  2  3  1  0
  3  4  1  0
  4  5  1  0
  5  6  1  0
  6  7  1  0
  7  8  2  0
  7  9  1  0
  9 10  1  0
 10 11  1  0
 11 12  1  0
 12 13  1  0
 13 14  1  0
 14 15  1  0
 15 16  2  0
 14 17  1  0
 17 18  1  0
 18 19  1  0
 19 20  1  0
 20 21  1  0
 20 22  1  0
 22 23  1  0
  4 24  1  0
 24 25  1  0
 25 26  1  0
 26 27  1  0
 26 28  1  0
 28 29  1  0
 29 30  1  0
 30 31  1  0
 31 32  1  0
 24  3  1  0
 23 17  1  0
  1 33  1  0
  1 34  1  0
  1 35  1  0
  2 36  1  0
  2 37  1  0
  3 38  1  0
  4 39  1  0
  5 40  1  0
  5 41  1  0
  6 42  1  0
  6 43  1  0
  9 44  1  0
  9 45  1  0
 10 46  1  0
 10 47  1  0
 11 48  1  0
 11 49  1  0
 12 50  1  0
 12 51  1  0
 13 52  1  0
 13 53  1  0
 14 54  1  0
 15 55  1  0
 17 56  1  0
 18 57  1  0
 18 58  1  0
 19 59  1  0
 19 60  1  0
 20 61  1  0
 21 62  1  0
 22 63  1  0
 23 64  1  0
 23 65  1  0
 24 66  1  0
 25 67  1  0
 25 68  1  0
 26 69  1  0
 27 70  1  0
 27 71  1  0
 27 72  1  0
 28 73  1  0
 28 74  1  0
 29 75  1  0
 29 76  1  0
 30 77  1  0
 31 78  1  0
 31 79  1  0
 32 80  1  0
 32 81  1  0
M  END
