
     RDKit          2D

 25 24  0  0  0  0  0  0  0  0999 V2000
   15.2445  -20.9113   -9.6885 C   0  0  0  0  0  0  0  0  0  0  0  0
   14.6890  -19.8418   -8.7954 S   0  0  0  0  0  6  0  0  0  0  0  0
   15.1182  -19.7654   -7.3603 O   0  0  0  0  0  0  0  0  0  0  0  0
   13.7042  -18.8487   -9.3376 O   0  0  0  0  0  0  0  0  0  0  0  0
   14.1334  -18.7723   -7.9024 O   0  0  0  0  0  0  0  0  0  0  0  0
   14.1545  -19.7725  -10.1953 F   0  0  0  0  0  0  0  0  0  0  0  0
   15.6738  -20.8349   -8.2533 C   0  0  0  0  0  0  0  0  0  0  0  0
   16.6586  -21.8279   -7.7111 N   0  0  0  0  0  0  0  0  0  0  0  0
   17.2882  -22.8361   -8.6262 N   0  0  0  0  0  0  0  0  0  0  0  0
   18.2730  -23.8291   -8.0841 C   0  0  0  0  0  0  0  0  0  0  0  0
   19.2578  -24.8222   -7.5419 N   0  0  0  0  0  0  0  0  0  0  0  0
   15.8000  -21.9808  -10.5816 H   0  0  0  0  0  0  0  0  0  0  0  0
   14.5664  -20.4662  -10.9503 H   0  0  0  0  0  0  0  0  0  0  0  0
   16.1080  -21.7326   -8.7775 H   0  0  0  0  0  0  0  0  0  0  0  0
   14.5627  -18.6959   -6.4672 H   0  0  0  0  0  0  0  0  0  0  0  0
   13.3220  -18.2804   -8.9297 H   0  0  0  0  0  0  0  0  0  0  0  0
   13.4719  -18.2133   -8.0880 H   0  0  0  0  0  0  0  0  0  0  0  0
   16.0660  -21.6481   -9.4511 H   0  0  0  0  0  0  0  0  0  0  0  0
   15.7581  -20.5022   -6.7930 H   0  0  0  0  0  0  0  0  0  0  0  0
   17.0139  -21.8129   -6.2539 H   0  0  0  0  0  0  0  0  0  0  0  0
   16.9329  -22.8511  -10.0835 H   0  0  0  0  0  0  0  0  0  0  0  0
   18.4339  -24.4176   -9.4543 H   0  0  0  0  0  0  0  0  0  0  0  0
   18.1120  -23.2406   -6.7138 H   0  0  0  0  0  0  0  0  0  0  0  0
   19.6131  -24.8071   -6.0846 H   0  0  0  0  0  0  0  0  0  0  0  0
   19.8874  -25.8303   -8.4569 H   0  0  0  0  0  0  0  0  0  0  0  0
  1  2  1  0
  2  3  1  0
  2  4  1  0
  2  5  1  0
  2  6  1  0
  2  7  1  0
  7  8  1  0
  8  9  1  0
  9 10  1  0
 10 11  1  0
  1 12  1  0
  1 13  1  0
  1 14  1  0
  3 15  1  0
  4 16  1  0
  5 17  1  0
  7 18  1  0
  7 19  1  0
  8 20  1  0
  9 21  1  0
 10 22  1  0
 10 23  1  0
 11 24  1  0
 11 25  1  0
M  END
