
     RDKit          2D

 35 37  0  0  0  0  0  0  0  0999 V2000
    4.3847   25.7282    3.2171 C   0  0  0  0  0  0  0  0  0  0  0  0
    3.0858   25.1382    2.7536 C   0  0  0  0  0  0  0  0  0  0  0  0
    1.7870   24.5480    2.2901 C   0  0  0  0  0  0  0  0  0  0  0  0
    0.4882   23.9579    1.8266 C   0  0  0  0  0  0  0  0  0  0  0  0
   -0.8106   23.3678    1.3631 O   0  0  0  0  0  0  0  0  0  0  0  0
    1.0663   25.2713    3.3890 C   0  0  0  0  0  0  0  0  0  0  0  0
    0.3456   25.9945    4.4879 C   0  0  0  0  0  0  0  0  0  0  0  0
    0.7537   26.9263    5.5901 C   0  0  0  0  0  0  0  0  0  0  0  0
   -0.6737   27.0173    6.0419 C   0  0  0  0  0  0  0  0  0  0  0  0
   -0.6488   27.9409    7.2235 C   0  0  0  0  0  0  0  0  0  0  0  0
   -1.0819   26.0854    4.9396 C   0  0  0  0  0  0  0  0  0  0  0  0
   -2.1140   26.6301    5.8820 N   0  0  0  0  0  0  0  0  0  0  0  0
   -2.4469   25.6947    4.7576 C   0  0  0  0  0  0  0  0  0  0  0  0
   -3.8511   25.8343    5.2665 O   0  0  0  0  0  0  0  0  0  0  0  0
   -1.1738   25.3657    4.0359 N   0  0  0  0  0  0  0  0  0  0  0  0
    5.6835   26.3184    3.6806 H   0  0  0  0  0  0  0  0  0  0  0  0
    5.1136   24.5158    2.7183 H   0  0  0  0  0  0  0  0  0  0  0  0
    3.6558   26.9407    3.7158 H   0  0  0  0  0  0  0  0  0  0  0  0
    2.7521   25.8912    3.0792 H   0  0  0  0  0  0  0  0  0  0  0  0
    3.8147   23.9257    2.2549 H   0  0  0  0  0  0  0  0  0  0  0  0
    2.5077   23.8248    1.1912 H   0  0  0  0  0  0  0  0  0  0  0  0
    1.2161   22.7420    1.3348 H   0  0  0  0  0  0  0  0  0  0  0  0
   -0.1814   24.6383    2.0661 H   0  0  0  0  0  0  0  0  0  0  0  0
   -0.8288   22.0228    0.6993 H   0  0  0  0  0  0  0  0  0  0  0  0
    0.2144   24.8826    3.0860 H   0  0  0  0  0  0  0  0  0  0  0  0
    1.7754   25.6705    3.7387 H   0  0  0  0  0  0  0  0  0  0  0  0
    1.2750   27.7488    6.5252 H   0  0  0  0  0  0  0  0  0  0  0  0
    2.1812   26.8354    5.1383 H   0  0  0  0  0  0  0  0  0  0  0  0
   -0.6240   28.8645    8.4051 H   0  0  0  0  0  0  0  0  0  0  0  0
   -2.1434   27.8571    7.3204 H   0  0  0  0  0  0  0  0  0  0  0  0
    0.6889   28.1171    7.2665 H   0  0  0  0  0  0  0  0  0  0  0  0
   -1.7014   25.6302    4.4997 H   0  0  0  0  0  0  0  0  0  0  0  0
   -3.0734   24.7885    3.7396 H   0  0  0  0  0  0  0  0  0  0  0  0
   -4.9709   25.1023    4.5881 H   0  0  0  0  0  0  0  0  0  0  0  0
   -1.4050   24.4297    2.8868 H   0  0  0  0  0  0  0  0  0  0  0  0
  1  2  1  0
  2  3  1  0
  3  4  1  0
  4  5  1  0
  3  6  1  0
  6  7  1  0
  7  8  1  0
  8  9  1  0
  9 10  1  0
  9 11  1  0
 11 12  1  0
 12 13  1  0
 13 14  1  0
 13 15  1  0
 11  7  1  0
 15  7  1  0
 12  9  1  0
  1 16  1  0
  1 17  1  0
  1 18  1  0
  2 19  1  0
  2 20  1  0
  3 21  1  0
  4 22  1  0
  4 23  1  0
  5 24  1  0
  6 25  1  0
  6 26  1  0
  8 27  1  0
  8 28  1  0
 10 29  1  0
 10 30  1  0
 10 31  1  0
 11 32  1  0
 13 33  1  0
 14 34  1  0
 15 35  1  0
M  END
