
     RDKit          2D

 56 61  0  0  0  0  0  0  0  0999 V2000
   23.6729  -20.2109  -14.2907 C   0  0  0  0  0  0  0  0  0  0  0  0
   22.5929  -20.7985  -15.1500 C   0  0  0  0  0  0  0  0  0  0  0  0
   21.3442  -21.3402  -14.5194 C   0  0  0  0  0  0  0  0  0  0  0  0
   20.0956  -21.8818  -13.8888 C   0  0  0  0  0  0  0  0  0  0  0  0
   18.8470  -22.4233  -13.2583 C   0  0  0  0  0  0  0  0  0  0  0  0
   17.7672  -23.0112  -14.1175 C   0  0  0  0  0  0  0  0  0  0  0  0
   18.6783  -22.3770  -11.7685 C   0  0  0  0  0  0  0  0  0  0  0  0
   18.5095  -22.3308  -10.2788 C   0  0  0  0  0  0  0  0  0  0  0  0
   17.1901  -22.9841  -10.5658 C   0  0  0  0  0  0  0  0  0  0  0  0
   16.4892  -23.2070   -9.2585 C   0  0  0  0  0  0  0  0  0  0  0  0
   17.3753  -22.6914   -8.1636 C   0  0  0  0  0  0  0  0  0  0  0  0
   18.0290  -22.2707   -6.8807 C   0  0  0  0  0  0  0  0  0  0  0  0
   18.2374  -22.0464   -5.4123 C   0  0  0  0  0  0  0  0  0  0  0  0
   16.9737  -22.6904   -5.9009 C   0  0  0  0  0  0  0  0  0  0  0  0
   16.2727  -22.9133   -4.5935 C   0  0  0  0  0  0  0  0  0  0  0  0
   16.1443  -22.8475   -3.1005 C   0  0  0  0  0  0  0  0  0  0  0  0
   17.3038  -22.2330   -2.3739 O   0  0  0  0  0  0  0  0  0  0  0  0
   15.0097  -23.3150   -2.2379 O   0  0  0  0  0  0  0  0  0  0  0  0
   13.7232  -23.9637   -2.6554 O   0  0  0  0  0  0  0  0  0  0  0  0
   13.2537  -24.3052   -4.0385 C   0  0  0  0  0  0  0  0  0  0  0  0
   12.6000  -24.7259   -5.3213 C   0  0  0  0  0  0  0  0  0  0  0  0
   14.4750  -23.9534   -6.7467 C   0  0  0  0  0  0  0  0  0  0  0  0
   14.3001  -24.1623   -8.2218 C   0  0  0  0  0  0  0  0  0  0  0  0
   15.2982  -23.4628   -5.5928 C   0  0  0  0  0  0  0  0  0  0  0  0
   13.9547  -24.0822   -5.3457 C   0  0  0  0  0  0  0  0  0  0  0  0
   18.6240  -22.1499   -8.7941 C   0  0  0  0  0  0  0  0  0  0  0  0
   24.9215  -19.6692  -14.9213 H   0  0  0  0  0  0  0  0  0  0  0  0
   23.5042  -20.1647  -12.8009 H   0  0  0  0  0  0  0  0  0  0  0  0
   22.7616  -20.8446  -16.6397 H   0  0  0  0  0  0  0  0  0  0  0  0
   21.8772  -20.9884  -13.1620 H   0  0  0  0  0  0  0  0  0  0  0  0
   20.8114  -21.6919  -15.8767 H   0  0  0  0  0  0  0  0  0  0  0  0
   19.4020  -21.8299  -15.2179 H   0  0  0  0  0  0  0  0  0  0  0  0
   20.7893  -21.9336  -12.5598 H   0  0  0  0  0  0  0  0  0  0  0  0
   17.9359  -23.0575  -15.6073 H   0  0  0  0  0  0  0  0  0  0  0  0
   16.5185  -23.5528  -13.4870 H   0  0  0  0  0  0  0  0  0  0  0  0
   17.9803  -22.7245  -11.9347 H   0  0  0  0  0  0  0  0  0  0  0  0
   20.0222  -21.7241  -11.6366 H   0  0  0  0  0  0  0  0  0  0  0  0
   19.8642  -21.6871  -10.3032 H   0  0  0  0  0  0  0  0  0  0  0  0
   15.9637  -23.6186  -11.1517 H   0  0  0  0  0  0  0  0  0  0  0  0
   17.3417  -22.9784  -11.3483 H   0  0  0  0  0  0  0  0  0  0  0  0
   15.6899  -23.4826   -8.0195 H   0  0  0  0  0  0  0  0  0  0  0  0
   15.4093  -23.7949  -10.1178 H   0  0  0  0  0  0  0  0  0  0  0  0
   16.2634  -23.1450   -7.2649 H   0  0  0  0  0  0  0  0  0  0  0  0
   19.3551  -21.6692   -7.2409 H   0  0  0  0  0  0  0  0  0  0  0  0
   19.5920  -21.4028   -5.4367 H   0  0  0  0  0  0  0  0  0  0  0  0
   18.1392  -21.9661   -3.9177 H   0  0  0  0  0  0  0  0  0  0  0  0
   15.9536  -23.2568   -6.8433 H   0  0  0  0  0  0  0  0  0  0  0  0
   17.4977  -22.2792   -4.0042 H   0  0  0  0  0  0  0  0  0  0  0  0
   12.0213  -24.8356   -3.3676 H   0  0  0  0  0  0  0  0  0  0  0  0
   11.4405  -25.3404   -6.0478 H   0  0  0  0  0  0  0  0  0  0  0  0
   14.1252  -24.3711   -9.6968 H   0  0  0  0  0  0  0  0  0  0  0  0
   12.9566  -24.7820   -7.9747 H   0  0  0  0  0  0  0  0  0  0  0  0
   15.6549  -23.5217   -8.2872 H   0  0  0  0  0  0  0  0  0  0  0  0
   16.3099  -23.0687   -6.6278 H   0  0  0  0  0  0  0  0  0  0  0  0
   19.9547  -21.5440   -9.1289 H   0  0  0  0  0  0  0  0  0  0  0  0
   19.1718  -21.7743   -7.4491 H   0  0  0  0  0  0  0  0  0  0  0  0
  1  2  2  3
  2  3  1  0
  3  4  1  0
  4  5  1  0
  5  6  2  3
  5  7  1  0
  7  8  1  0
  8  9  1  0
  9 10  1  0
 10 11  1  0
 11 12  1  0
 12 13  1  0
 13 14  1  0
 14 15  1  0
 15 16  1  0
 16 17  2  0
 16 18  1  0
 18 19  1  0
 19 20  1  0
 20 21  1  0
 21 22  1  0
 22 23  1  0
 22 24  1  0
 24 25  1  0
 11 26  1  0
 26  8  1  0
 14 12  1  0
 24 15  1  0
 25 20  1  0
 25 21  1  0
 25 22  1  0
  1 27  1  0
  1 28  1  0
  2 29  1  0
  3 30  1  0
  3 31  1  0
  4 32  1  0
  4 33  1  0
  6 34  1  0
  6 35  1  0
  7 36  1  0
  7 37  1  0
  8 38  1  0
  9 39  1  0
  9 40  1  0
 10 41  1  0
 10 42  1  0
 11 43  1  0
 12 44  1  0
 13 45  1  0
 13 46  1  0
 14 47  1  0
 15 48  1  0
 20 49  1  0
 21 50  1  0
 23 51  1  0
 23 52  1  0
 23 53  1  0
 24 54  1  0
 26 55  1  0
 26 56  1  0
M  END
