
     RDKit          2D

 94103  0  0  0  0  0  0  0  0999 V2000
   15.7761  -21.5626   -6.9555 C   0  0  0  0  0  0  0  0  0  0  0  0
   17.1000  -21.7445   -7.6370 C   0  0  0  0  0  0  0  0  0  0  0  0
   18.3274  -22.0362   -6.8255 C   0  0  0  0  0  0  0  0  0  0  0  0
   19.5547  -22.3279   -6.0139 C   0  0  0  0  0  0  0  0  0  0  0  0
   20.7821  -22.6196   -5.2025 C   0  0  0  0  0  0  0  0  0  0  0  0
   19.1469  -22.0801   -8.0810 C   0  0  0  0  0  0  0  0  0  0  0  0
   19.9666  -22.1241   -9.3364 C   0  0  0  0  0  0  0  0  0  0  0  0
   21.4141  -22.3614   -9.6504 C   0  0  0  0  0  0  0  0  0  0  0  0
   21.1257  -22.1863  -11.1120 C   0  0  0  0  0  0  0  0  0  0  0  0
   19.6783  -21.9489  -10.7980 C   0  0  0  0  0  0  0  0  0  0  0  0
   18.2308  -21.7116  -10.4840 C   0  0  0  0  0  0  0  0  0  0  0  0
   16.7834  -21.4743  -10.1701 C   0  0  0  0  0  0  0  0  0  0  0  0
   17.9829  -21.3320  -11.9139 C   0  0  0  0  0  0  0  0  0  0  0  0
   16.5763  -21.8416  -11.8053 N   0  0  0  0  0  0  0  0  0  0  0  0
   16.3284  -21.4620  -13.2351 C   0  0  0  0  0  0  0  0  0  0  0  0
   17.7350  -20.9524  -13.3437 C   0  0  0  0  0  0  0  0  0  0  0  0
   18.5543  -20.3237  -14.4316 C   0  0  0  0  0  0  0  0  0  0  0  0
   19.3736  -19.6950  -15.5194 O   0  0  0  0  0  0  0  0  0  0  0  0
   18.7701  -19.4602  -16.8724 C   0  0  0  0  0  0  0  0  0  0  0  0
   17.4369  -21.3749  -12.3499 C   0  0  0  0  0  0  0  0  0  0  0  0
   18.2308  -21.7116  -10.4840 N   0  0  0  0  0  0  0  0  0  0  0  0
   17.7422  -22.2952   -9.1915 C   0  0  0  0  0  0  0  0  0  0  0  0
   17.7421  -22.7575   -7.7645 C   0  0  0  0  0  0  0  0  0  0  0  0
   17.2535  -23.3410   -6.4719 C   0  0  0  0  0  0  0  0  0  0  0  0
   15.8469  -23.8506   -6.3633 C   0  0  0  0  0  0  0  0  0  0  0  0
   15.8469  -24.3129   -4.9363 O   0  0  0  0  0  0  0  0  0  0  0  0
   16.3355  -23.2671   -7.6559 N   0  0  0  0  0  0  0  0  0  0  0  0
   19.1488  -21.7855   -9.3001 C   0  0  0  0  0  0  0  0  0  0  0  0
   19.7523  -22.0203   -7.9471 C   0  0  0  0  0  0  0  0  0  0  0  0
   21.0469  -21.4298   -8.4220 C   0  0  0  0  0  0  0  0  0  0  0  0
   20.4434  -21.1951   -9.7750 C   0  0  0  0  0  0  0  0  0  0  0  0
   19.8399  -20.9603  -11.1281 C   0  0  0  0  0  0  0  0  0  0  0  0
   19.7365  -20.7842  -12.6141 C   0  0  0  0  0  0  0  0  0  0  0  0
   20.9673  -20.8718  -13.4671 C   0  0  0  0  0  0  0  0  0  0  0  0
   21.0706  -21.0479  -11.9810 C   0  0  0  0  0  0  0  0  0  0  0  0
   22.4046  -21.3115  -11.3480 C   0  0  0  0  0  0  0  0  0  0  0  0
   23.7387  -21.5751  -10.7149 N   0  0  0  0  0  0  0  0  0  0  0  0
   24.9706  -21.6545  -11.5669 C   0  0  0  0  0  0  0  0  0  0  0  0
   19.6783  -21.9489  -10.7980 N   0  0  0  0  0  0  0  0  0  0  0  0
   18.4509  -21.6573  -11.6095 C   0  0  0  0  0  0  0  0  0  0  0  0
   17.2236  -21.3656  -12.4209 C   0  0  0  0  0  0  0  0  0  0  0  0
   17.6201  -21.6797  -10.3608 Cl  0  0  0  0  0  0  0  0  0  0  0  0
   14.5488  -21.2709   -7.7670 H   0  0  0  0  0  0  0  0  0  0  0  0
   15.3261  -21.6029   -5.5251 H   0  0  0  0  0  0  0  0  0  0  0  0
   16.4935  -21.5192   -8.9902 H   0  0  0  0  0  0  0  0  0  0  0  0
   17.8291  -22.0641   -5.4109 H   0  0  0  0  0  0  0  0  0  0  0  0
   18.8903  -22.3227   -4.6692 H   0  0  0  0  0  0  0  0  0  0  0  0
   20.6475  -22.4383   -7.0355 H   0  0  0  0  0  0  0  0  0  0  0  0
   22.0095  -22.9112   -4.3910 H   0  0  0  0  0  0  0  0  0  0  0  0
   19.9615  -22.5808   -3.9474 H   0  0  0  0  0  0  0  0  0  0  0  0
   21.6027  -22.6583   -6.4575 H   0  0  0  0  0  0  0  0  0  0  0  0
   17.7075  -21.7915   -8.3885 H   0  0  0  0  0  0  0  0  0  0  0  0
   20.3742  -22.3725   -7.2695 H   0  0  0  0  0  0  0  0  0  0  0  0
   22.8155  -22.5756  -10.1403 H   0  0  0  0  0  0  0  0  0  0  0  0
   22.2021  -22.6100   -8.3985 H   0  0  0  0  0  0  0  0  0  0  0  0
   21.9454  -22.2302  -12.3675 H   0  0  0  0  0  0  0  0  0  0  0  0
   20.6126  -22.2150   -9.6551 H   0  0  0  0  0  0  0  0  0  0  0  0
   18.3005  -22.0595   -9.0266 H   0  0  0  0  0  0  0  0  0  0  0  0
   15.3360  -21.2370   -9.8561 H   0  0  0  0  0  0  0  0  0  0  0  0
   16.3361  -21.6329   -8.7471 H   0  0  0  0  0  0  0  0  0  0  0  0
   16.0188  -21.1037  -11.4063 H   0  0  0  0  0  0  0  0  0  0  0  0
   19.2877  -20.7457  -12.3653 H   0  0  0  0  0  0  0  0  0  0  0  0
   16.0805  -21.0825  -14.6649 H   0  0  0  0  0  0  0  0  0  0  0  0
   14.9218  -21.9717  -13.1265 H   0  0  0  0  0  0  0  0  0  0  0  0
   17.3188  -20.1570  -15.2657 H   0  0  0  0  0  0  0  0  0  0  0  0
   19.7898  -20.4904  -13.5974 H   0  0  0  0  0  0  0  0  0  0  0  0
   18.1666  -19.2254  -18.2254 H   0  0  0  0  0  0  0  0  0  0  0  0
   19.7329  -18.3340  -17.1066 H   0  0  0  0  0  0  0  0  0  0  0  0
   17.8072  -20.5863  -16.6383 H   0  0  0  0  0  0  0  0  0  0  0  0
   19.1083  -20.7039  -12.6812 H   0  0  0  0  0  0  0  0  0  0  0  0
   16.3357  -22.6442   -9.5784 H   0  0  0  0  0  0  0  0  0  0  0  0
   18.9663  -22.6220   -6.9083 H   0  0  0  0  0  0  0  0  0  0  0  0
   18.0313  -23.4913   -5.1982 H   0  0  0  0  0  0  0  0  0  0  0  0
   14.4404  -24.1996   -6.7503 H   0  0  0  0  0  0  0  0  0  0  0  0
   14.6099  -24.9216   -4.3453 H   0  0  0  0  0  0  0  0  0  0  0  0
   20.6512  -22.1052   -6.7492 H   0  0  0  0  0  0  0  0  0  0  0  0
   19.0383  -22.6386   -6.7818 H   0  0  0  0  0  0  0  0  0  0  0  0
   22.4053  -20.8724   -8.7285 H   0  0  0  0  0  0  0  0  0  0  0  0
   21.4881  -21.7348   -7.0212 H   0  0  0  0  0  0  0  0  0  0  0  0
   21.8018  -20.6376  -10.0815 H   0  0  0  0  0  0  0  0  0  0  0  0
   18.3554  -20.7457  -11.1051 H   0  0  0  0  0  0  0  0  0  0  0  0
   18.7244  -20.5198  -13.6892 H   0  0  0  0  0  0  0  0  0  0  0  0
   20.3637  -20.6370  -14.8201 H   0  0  0  0  0  0  0  0  0  0  0  0
   22.4076  -21.0409  -13.8502 H   0  0  0  0  0  0  0  0  0  0  0  0
   23.0579  -21.2439  -12.6965 H   0  0  0  0  0  0  0  0  0  0  0  0
   22.2729  -21.4690   -9.8621 H   0  0  0  0  0  0  0  0  0  0  0  0
   23.8408  -21.7592   -9.2297 H   0  0  0  0  0  0  0  0  0  0  0  0
   26.2026  -21.7340  -12.4190 H   0  0  0  0  0  0  0  0  0  0  0  0
   25.7994  -21.9160  -10.3443 H   0  0  0  0  0  0  0  0  0  0  0  0
   24.1419  -21.3931  -12.7896 H   0  0  0  0  0  0  0  0  0  0  0  0
   19.2818  -21.6349  -12.8581 H   0  0  0  0  0  0  0  0  0  0  0  0
   16.2310  -21.0932  -13.5121 H   0  0  0  0  0  0  0  0  0  0  0  0
   16.0184  -21.2200  -11.5398 H   0  0  0  0  0  0  0  0  0  0  0  0
   17.5488  -21.3021  -13.8839 H   0  0  0  0  0  0  0  0  0  0  0  0
  1  2  2  3
  2  3  1  0
  3  4  1  0
  4  5  1  0
  3  6  1  0
  6  7  1  0
  7  8  1  0
  8  9  1  0
  9 10  1  0
 10 11  1  0
 11 12  1  0
 11 13  1  0
 13 14  1  0
 14 15  1  0
 15 16  1  0
 16 17  1  0
 17 18  1  0
 18 19  1  0
 16 20  1  0
 20 21  1  0
 21 22  1  0
 22 23  1  0
 23 24  1  0
 24 25  1  0
 25 26  1  0
 25 27  1  0
 22 28  1  0
 28 29  1  0
 29 30  1  0
 30 31  1  0
 31 32  1  0
 32 33  1  0
 33 34  1  0
 34 35  1  0
 35 36  1  0
 36 37  1  0
 37 38  1  0
  9 39  1  0
 39 40  1  0
 40 41  1  0
 40 42  1  0
 10  7  1  0
 16 13  1  0
 28 21  1  0
 35 32  1  0
 39  7  1  0
 20 14  1  0
 27 23  1  0
 31 28  1  0
 35 33  1  0
 27 24  1  0
  1 43  1  0
  1 44  1  0
  2 45  1  0
  3 46  1  0
  4 47  1  0
  4 48  1  0
  5 49  1  0
  5 50  1  0
  5 51  1  0
  6 52  1  0
  6 53  1  0
  8 54  1  0
  8 55  1  0
  9 56  1  0
 10 57  1  0
 11 58  1  0
 12 59  1  0
 12 60  1  0
 12 61  1  0
 13 62  1  0
 15 63  1  0
 15 64  1  0
 17 65  1  0
 17 66  1  0
 19 67  1  0
 19 68  1  0
 19 69  1  0
 20 70  1  0
 22 71  1  0
 23 72  1  0
 24 73  1  0
 25 74  1  0
 26 75  1  0
 29 76  1  0
 29 77  1  0
 30 78  1  0
 30 79  1  0
 31 80  1  0
 32 81  1  0
 33 82  1  0
 34 83  1  0
 34 84  1  0
 36 85  1  0
 36 86  1  0
 37 87  1  0
 38 88  1  0
 38 89  1  0
 38 90  1  0
 40 91  1  0
 41 92  1  0
 41 93  1  0
 41 94  1  0
M  END
