
     RDKit          2D

105111  0  0  0  0  0  0  0  0999 V2000
   17.0553  -19.0814   -9.7002 C   0  0  0  0  0  0  0  0  0  0  0  0
   16.6240  -19.3140   -8.2826 C   0  0  0  0  0  0  0  0  0  0  0  0
   16.1926  -19.5467   -6.8649 C   0  0  0  0  0  0  0  0  0  0  0  0
   15.7613  -19.7794   -5.4473 C   0  0  0  0  0  0  0  0  0  0  0  0
   15.2802  -19.4941   -4.0555 C   0  0  0  0  0  0  0  0  0  0  0  0
   15.0922  -20.6193   -3.0816 C   0  0  0  0  0  0  0  0  0  0  0  0
   15.3851  -22.0298   -3.4994 C   0  0  0  0  0  0  0  0  0  0  0  0
   15.8662  -22.3150   -4.8913 C   0  0  0  0  0  0  0  0  0  0  0  0
   15.8424  -23.7072   -4.3335 O   0  0  0  0  0  0  0  0  0  0  0  0
   16.0543  -21.1898   -5.8652 C   0  0  0  0  0  0  0  0  0  0  0  0
   16.4618  -22.3494   -6.7251 C   0  0  0  0  0  0  0  0  0  0  0  0
   16.2737  -23.4746   -5.7511 C   0  0  0  0  0  0  0  0  0  0  0  0
   16.5667  -24.8851   -6.1690 S   0  0  0  0  0  0  0  0  0  0  0  0
   16.7548  -23.7599   -7.1429 C   0  0  0  0  0  0  0  0  0  0  0  0
   17.2359  -24.0451   -8.5348 O   0  0  0  0  0  0  0  0  0  0  0  0
   17.4312  -22.9191   -9.5064 C   0  0  0  0  0  0  0  0  0  0  0  0
   17.6266  -21.7930  -10.4779 C   0  0  0  0  0  0  0  0  0  0  0  0
   17.3124  -20.4220   -9.9568 C   0  0  0  0  0  0  0  0  0  0  0  0
   17.4043  -19.1063  -10.6712 C   0  0  0  0  0  0  0  0  0  0  0  0
   17.7185  -20.4774  -11.1923 C   0  0  0  0  0  0  0  0  0  0  0  0
   17.8331  -18.8366  -12.0831 C   0  0  0  0  0  0  0  0  0  0  0  0
   17.5773  -17.3930  -11.7660 C   0  0  0  0  0  0  0  0  0  0  0  0
   17.8052  -16.3434  -12.8130 N   0  0  0  0  0  0  0  0  0  0  0  0
   17.0937  -16.9991  -10.4018 C   0  0  0  0  0  0  0  0  0  0  0  0
   16.6100  -16.6051   -9.0377 C   0  0  0  0  0  0  0  0  0  0  0  0
   17.0785  -15.5595  -10.8230 C   0  0  0  0  0  0  0  0  0  0  0  0
   18.2758  -19.8161  -13.1293 C   0  0  0  0  0  0  0  0  0  0  0  0
   18.3992  -21.3072  -13.0221 C   0  0  0  0  0  0  0  0  0  0  0  0
   18.5909  -22.7911  -13.1281 C   0  0  0  0  0  0  0  0  0  0  0  0
   18.1102  -22.1870  -11.8421 C   0  0  0  0  0  0  0  0  0  0  0  0
   18.0901  -23.5931  -11.3199 C   0  0  0  0  0  0  0  0  0  0  0  0
   18.2236  -18.3513  -13.4476 C   0  0  0  0  0  0  0  0  0  0  0  0
   18.0100  -16.8771  -13.2707 O   0  0  0  0  0  0  0  0  0  0  0  0
   18.6883  -18.3778  -14.8736 C   0  0  0  0  0  0  0  0  0  0  0  0
   19.1531  -18.4043  -16.2995 O   0  0  0  0  0  0  0  0  0  0  0  0
   19.2685  -17.1253  -17.0746 C   0  0  0  0  0  0  0  0  0  0  0  0
   18.7960  -16.3565  -15.8765 C   0  0  0  0  0  0  0  0  0  0  0  0
   19.7411  -17.8941  -18.2729 C   0  0  0  0  0  0  0  0  0  0  0  0
   20.2137  -18.6630  -19.4710 C   0  0  0  0  0  0  0  0  0  0  0  0
   20.0972  -19.9420  -18.6962 O   0  0  0  0  0  0  0  0  0  0  0  0
   20.6863  -19.4317  -20.6692 C   0  0  0  0  0  0  0  0  0  0  0  0
   21.1589  -20.2006  -21.8673 C   0  0  0  0  0  0  0  0  0  0  0  0
   21.6315  -20.9693  -23.0655 C   0  0  0  0  0  0  0  0  0  0  0  0
   22.1040  -21.7381  -24.2636 N   0  0  0  0  0  0  0  0  0  0  0  0
   22.2402  -23.2302  -24.1915 C   0  0  0  0  0  0  0  0  0  0  0  0
   17.4203  -18.4991  -11.0337 H   0  0  0  0  0  0  0  0  0  0  0  0
   16.7829  -17.6474   -9.3543 H   0  0  0  0  0  0  0  0  0  0  0  0
   17.1659  -20.5672   -9.5265 H   0  0  0  0  0  0  0  0  0  0  0  0
   16.3491  -20.7827   -8.4138 H   0  0  0  0  0  0  0  0  0  0  0  0
   16.7937  -17.9020   -7.8057 H   0  0  0  0  0  0  0  0  0  0  0  0
   16.0717  -20.9682   -7.3285 H   0  0  0  0  0  0  0  0  0  0  0  0
   16.3674  -18.0860   -6.5720 H   0  0  0  0  0  0  0  0  0  0  0  0
   15.6181  -18.2881   -5.5217 H   0  0  0  0  0  0  0  0  0  0  0  0
   15.3041  -18.1019   -4.6133 H   0  0  0  0  0  0  0  0  0  0  0  0
   14.8074  -18.7253   -2.8573 H   0  0  0  0  0  0  0  0  0  0  0  0
   14.6111  -20.3341   -1.6897 H   0  0  0  0  0  0  0  0  0  0  0  0
   15.1440  -23.0273   -2.4055 H   0  0  0  0  0  0  0  0  0  0  0  0
   16.2990  -23.3702   -5.8656 H   0  0  0  0  0  0  0  0  0  0  0  0
   16.2148  -24.9725   -5.0479 H   0  0  0  0  0  0  0  0  0  0  0  0
   16.4248  -20.6318   -7.2073 H   0  0  0  0  0  0  0  0  0  0  0  0
   16.7914  -21.6269   -7.9976 H   0  0  0  0  0  0  0  0  0  0  0  0
   15.8216  -23.5520   -4.3230 H   0  0  0  0  0  0  0  0  0  0  0  0
   18.5014  -23.7059  -10.2032 H   0  0  0  0  0  0  0  0  0  0  0  0
   16.3610  -22.1322   -8.8095 H   0  0  0  0  0  0  0  0  0  0  0  0
   17.0729  -21.4423   -8.8836 H   0  0  0  0  0  0  0  0  0  0  0  0
   16.9301  -19.1992   -9.1767 H   0  0  0  0  0  0  0  0  0  0  0  0
   17.0162  -17.9008   -9.8674 H   0  0  0  0  0  0  0  0  0  0  0  0
   18.0074  -19.5975  -12.3723 H   0  0  0  0  0  0  0  0  0  0  0  0
   18.1612  -21.4568  -12.2385 H   0  0  0  0  0  0  0  0  0  0  0  0
   17.5494  -14.8998  -12.4959 H   0  0  0  0  0  0  0  0  0  0  0  0
   17.1677  -18.4760  -10.1501 H   0  0  0  0  0  0  0  0  0  0  0  0
   16.1264  -16.2112   -7.6736 H   0  0  0  0  0  0  0  0  0  0  0  0
   16.5372  -15.1281   -9.2890 H   0  0  0  0  0  0  0  0  0  0  0  0
   16.5650  -17.9862   -8.4539 H   0  0  0  0  0  0  0  0  0  0  0  0
   17.0632  -14.1199  -11.2441 H   0  0  0  0  0  0  0  0  0  0  0  0
   16.5978  -14.9929   -9.5200 H   0  0  0  0  0  0  0  0  0  0  0  0
   17.5429  -15.5935  -12.2488 H   0  0  0  0  0  0  0  0  0  0  0  0
   18.7589  -20.1705  -14.5045 H   0  0  0  0  0  0  0  0  0  0  0  0
   18.8566  -21.2593  -14.4499 H   0  0  0  0  0  0  0  0  0  0  0  0
   19.0617  -22.8920  -14.5488 H   0  0  0  0  0  0  0  0  0  0  0  0
   18.6777  -24.2728  -12.9113 H   0  0  0  0  0  0  0  0  0  0  0  0
   18.0701  -24.9991  -10.7977 H   0  0  0  0  0  0  0  0  0  0  0  0
   17.6067  -23.4488   -9.9073 H   0  0  0  0  0  0  0  0  0  0  0  0
   18.5773  -24.2601  -12.5720 H   0  0  0  0  0  0  0  0  0  0  0  0
   18.2282  -15.8038  -14.2956 H   0  0  0  0  0  0  0  0  0  0  0  0
   18.2315  -16.9491  -14.8567 H   0  0  0  0  0  0  0  0  0  0  0  0
   19.1452  -19.8064  -14.8904 H   0  0  0  0  0  0  0  0  0  0  0  0
   19.3840  -15.8464  -17.8498 H   0  0  0  0  0  0  0  0  0  0  0  0
   18.3409  -15.4375  -14.7818 H   0  0  0  0  0  0  0  0  0  0  0  0
   18.9109  -15.0776  -16.6518 H   0  0  0  0  0  0  0  0  0  0  0  0
   18.5192  -17.2749  -14.7233 H   0  0  0  0  0  0  0  0  0  0  0  0
   19.8576  -16.6150  -19.0476 H   0  0  0  0  0  0  0  0  0  0  0  0
   19.6247  -19.1732  -17.4980 H   0  0  0  0  0  0  0  0  0  0  0  0
   20.3302  -17.3838  -20.2457 H   0  0  0  0  0  0  0  0  0  0  0  0
   20.3980  -21.3265  -19.1889 H   0  0  0  0  0  0  0  0  0  0  0  0
   20.8027  -18.1526  -21.4440 H   0  0  0  0  0  0  0  0  0  0  0  0
   20.6284  -20.7950  -20.0462 H   0  0  0  0  0  0  0  0  0  0  0  0
   21.0391  -21.4800  -21.0936 H   0  0  0  0  0  0  0  0  0  0  0  0
   21.2787  -18.9211  -22.6410 H   0  0  0  0  0  0  0  0  0  0  0  0
   21.7468  -19.6904  -23.8407 H   0  0  0  0  0  0  0  0  0  0  0  0
   21.5162  -22.2483  -22.2904 H   0  0  0  0  0  0  0  0  0  0  0  0
   22.4405  -21.0148  -25.5339 H   0  0  0  0  0  0  0  0  0  0  0  0
   22.3763  -24.7223  -24.1193 H   0  0  0  0  0  0  0  0  0  0  0  0
   23.0093  -23.2223  -25.4792 H   0  0  0  0  0  0  0  0  0  0  0  0
   21.4710  -23.2381  -22.9037 H   0  0  0  0  0  0  0  0  0  0  0  0
  1  2  1  0
  2  3  1  0
  3  4  1  0
  4  5  1  0
  5  6  1  0
  6  7  2  0
  7  8  1  0
  8  9  1  0
  8 10  1  0
 10 11  1  0
 11 12  1  0
 12 13  1  0
 13 14  1  0
 14 15  1  0
 15 16  1  0
 16 17  1  0
 17 18  1  0
 18 19  1  0
 19 20  1  0
 19 21  1  0
 21 22  1  0
 22 23  2  3
 22 24  1  0
 24 25  1  0
 24 26  1  0
 21 27  1  0
 27 28  1  0
 28 29  1  0
 29 30  1  0
 30 31  1  0
 27 32  1  0
 32 33  1  0
 32 34  1  0
 34 35  1  0
 35 36  1  0
 36 37  1  0
 36 38  1  0
 38 39  1  0
 39 40  1  0
 39 41  1  0
 41 42  1  0
 42 43  1  0
 43 44  1  0
 44 45  1  0
 10  4  1  0
 14 11  1  0
 20 17  1  0
 32 21  1  0
 14 12  1  0
 30 17  1  0
 30 28  1  0
  1 46  1  0
  1 47  1  0
  1 48  1  0
  2 49  1  0
  2 50  1  0
  3 51  1  0
  3 52  1  0
  4 53  1  0
  5 54  1  0
  5 55  1  0
  6 56  1  0
  7 57  1  0
  8 58  1  0
  9 59  1  0
 10 60  1  0
 11 61  1  0
 12 62  1  0
 16 63  1  0
 16 64  1  0
 18 65  1  0
 18 66  1  0
 19 67  1  0
 20 68  1  0
 20 69  1  0
 23 70  1  0
 24 71  1  0
 25 72  1  0
 25 73  1  0
 25 74  1  0
 26 75  1  0
 26 76  1  0
 26 77  1  0
 27 78  1  0
 28 79  1  0
 29 80  1  0
 29 81  1  0
 31 82  1  0
 31 83  1  0
 31 84  1  0
 33 85  1  0
 34 86  1  0
 34 87  1  0
 36 88  1  0
 37 89  1  0
 37 90  1  0
 37 91  1  0
 38 92  1  0
 38 93  1  0
 39 94  1  0
 40 95  1  0
 41 96  1  0
 41 97  1  0
 42 98  1  0
 42 99  1  0
 43100  1  0
 43101  1  0
 44102  1  0
 45103  1  0
 45104  1  0
 45105  1  0
M  END
