
     RDKit          2D

 62 64  0  0  0  0  0  0  0  0999 V2000
    7.2808   23.8706   10.9691 C   0  0  0  0  0  0  0  0  0  0  0  0
    6.0004   24.3556   10.3564 C   0  0  0  0  0  0  0  0  0  0  0  0
    5.3091   23.5306    9.3117 C   0  0  0  0  0  0  0  0  0  0  0  0
    4.0288   24.0157    8.6990 C   0  0  0  0  0  0  0  0  0  0  0  0
    3.7482   22.8858    7.7531 C   0  0  0  0  0  0  0  0  0  0  0  0
    3.2138   21.9245    6.7331 C   0  0  0  0  0  0  0  0  0  0  0  0
    1.9407   22.4944    6.1814 C   0  0  0  0  0  0  0  0  0  0  0  0
    1.6883   23.8079    6.8603 C   0  0  0  0  0  0  0  0  0  0  0  0
    1.1802   25.1286    7.3580 C   0  0  0  0  0  0  0  0  0  0  0  0
    0.4650   23.8421    5.9930 C   0  0  0  0  0  0  0  0  0  0  0  0
   -0.7583   23.8763    5.1257 C   0  0  0  0  0  0  0  0  0  0  0  0
   -1.7012   25.0404    5.2043 C   0  0  0  0  0  0  0  0  0  0  0  0
   -2.9245   25.0746    4.3370 C   0  0  0  0  0  0  0  0  0  0  0  0
   -4.1479   25.1088    3.4696 C   0  0  0  0  0  0  0  0  0  0  0  0
   -5.0842   24.5649    2.4315 C   0  0  0  0  0  0  0  0  0  0  0  0
   -6.3523   25.1704    1.9067 C   0  0  0  0  0  0  0  0  0  0  0  0
   -6.9972   26.4691    2.2904 C   0  0  0  0  0  0  0  0  0  0  0  0
   -6.5335   27.4832    3.2937 C   0  0  0  0  0  0  0  0  0  0  0  0
   -5.3101   27.4490    4.1610 C   0  0  0  0  0  0  0  0  0  0  0  0
   -5.9552   28.7478    4.5447 C   0  0  0  0  0  0  0  0  0  0  0  0
   -4.2485   26.3922    4.2393 C   0  0  0  0  0  0  0  0  0  0  0  0
   -3.7846   27.4064    5.2426 C   0  0  0  0  0  0  0  0  0  0  0  0
   -3.3209   28.4204    6.2458 C   0  0  0  0  0  0  0  0  0  0  0  0
   -2.8571   29.4345    7.2490 O   0  0  0  0  0  0  0  0  0  0  0  0
   -2.1280   27.5662    6.5579 O   0  0  0  0  0  0  0  0  0  0  0  0
    2.8054   24.0499    7.8317 C   0  0  0  0  0  0  0  0  0  0  0  0
    8.5611   23.3855   11.5819 H   0  0  0  0  0  0  0  0  0  0  0  0
    6.5017   23.1706   12.0429 H   0  0  0  0  0  0  0  0  0  0  0  0
    8.0598   24.5705    9.8953 H   0  0  0  0  0  0  0  0  0  0  0  0
    5.4114   25.6658   10.7883 H   0  0  0  0  0  0  0  0  0  0  0  0
    5.8981   22.2204    8.8798 H   0  0  0  0  0  0  0  0  0  0  0  0
    3.8646   25.3139    9.4322 H   0  0  0  0  0  0  0  0  0  0  0  0
    4.9627   22.0798    8.1071 H   0  0  0  0  0  0  0  0  0  0  0  0
    4.4283   21.1184    7.0871 H   0  0  0  0  0  0  0  0  0  0  0  0
    2.9333   20.7947    5.7872 H   0  0  0  0  0  0  0  0  0  0  0  0
    1.9263   21.2454    5.3507 H   0  0  0  0  0  0  0  0  0  0  0  0
    1.2753   22.5739    5.7496 H   0  0  0  0  0  0  0  0  0  0  0  0
    0.6720   26.4493    7.8556 H   0  0  0  0  0  0  0  0  0  0  0  0
    2.5013   25.6725    7.8148 H   0  0  0  0  0  0  0  0  0  0  0  0
   -0.2649   24.9066    7.0225 H   0  0  0  0  0  0  0  0  0  0  0  0
    0.3573   23.0537    5.9458 H   0  0  0  0  0  0  0  0  0  0  0  0
    0.3694   25.3340    5.8704 H   0  0  0  0  0  0  0  0  0  0  0  0
   -1.0389   22.7465    4.1797 H   0  0  0  0  0  0  0  0  0  0  0  0
   -1.4206   26.1702    6.1502 H   0  0  0  0  0  0  0  0  0  0  0  0
   -3.4537   25.9501    5.4340 H   0  0  0  0  0  0  0  0  0  0  0  0
   -2.2412   24.1883    3.3382 H   0  0  0  0  0  0  0  0  0  0  0  0
   -3.5029   23.8100    3.0859 H   0  0  0  0  0  0  0  0  0  0  0  0
   -4.7018   23.2406    1.8399 H   0  0  0  0  0  0  0  0  0  0  0  0
   -7.0703   24.3714    0.8598 H   0  0  0  0  0  0  0  0  0  0  0  0
   -8.2750   26.7971    1.5765 H   0  0  0  0  0  0  0  0  0  0  0  0
   -7.5164   28.6159    3.3226 H   0  0  0  0  0  0  0  0  0  0  0  0
   -4.4876   28.1360    5.2104 H   0  0  0  0  0  0  0  0  0  0  0  0
   -6.6002   30.0465    4.9284 H   0  0  0  0  0  0  0  0  0  0  0  0
   -4.7823   29.3238    5.2812 H   0  0  0  0  0  0  0  0  0  0  0  0
   -7.2854   28.4883    3.9018 H   0  0  0  0  0  0  0  0  0  0  0  0
   -2.9671   25.9350    4.8710 H   0  0  0  0  0  0  0  0  0  0  0  0
   -2.5840   26.5593    5.5438 H   0  0  0  0  0  0  0  0  0  0  0  0
   -4.9199   28.3708    5.0659 H   0  0  0  0  0  0  0  0  0  0  0  0
   -4.4483   29.3920    6.0584 H   0  0  0  0  0  0  0  0  0  0  0  0
   -1.5904   29.2033    8.0185 H   0  0  0  0  0  0  0  0  0  0  0  0
   -1.1300   28.0173    7.5828 H   0  0  0  0  0  0  0  0  0  0  0  0
    2.4445   25.3734    8.4383 H   0  0  0  0  0  0  0  0  0  0  0  0
  1  2  1  0
  2  3  2  3
  3  4  1  0
  4  5  1  0
  5  6  1  0
  6  7  1  0
  7  8  1  0
  8  9  1  6
  8 10  1  0
 10 11  1  0
 11 12  2  3
 12 13  1  0
 13 14  1  0
 14 15  1  0
 15 16  2  0
 16 17  1  0
 17 18  2  0
 18 19  1  0
 19 20  1  0
 19 21  1  0
 21 22  1  0
 22 23  1  0
 23 24  1  0
 23 25  1  0
  8 26  1  0
 26  4  1  0
 26  5  1  0
 21 14  1  0
  1 27  1  0
  1 28  1  0
  1 29  1  0
  2 30  1  0
  3 31  1  0
  4 32  1  6
  5 33  1  1
  6 34  1  0
  6 35  1  0
  7 36  1  0
  7 37  1  0
  9 38  1  0
  9 39  1  0
  9 40  1  0
 10 41  1  0
 10 42  1  0
 11 43  1  0
 12 44  1  0
 13 45  1  0
 13 46  1  0
 14 47  1  1
 15 48  1  0
 16 49  1  0
 17 50  1  0
 18 51  1  0
 19 52  1  6
 20 53  1  0
 20 54  1  0
 20 55  1  0
 21 56  1  1
 22 57  1  0
 22 58  1  0
 23 59  1  0
 24 60  1  0
 25 61  1  0
 26 62  1  1
M  END
