
     RDKit          2D

 54 58  0  0  0  0  0  0  0  0999 V2000
   -2.9374   24.6466    2.4104 C   0  0  0  0  0  0  0  0  0  0  0  0
   -2.4290   25.3022    3.6601 C   0  0  0  0  0  0  0  0  0  0  0  0
   -0.9672   25.2509    3.9926 C   0  0  0  0  0  0  0  0  0  0  0  0
    0.4946   25.1997    4.3251 C   0  0  0  0  0  0  0  0  0  0  0  0
    1.9561   24.8826    4.2096 C   0  0  0  0  0  0  0  0  0  0  0  0
    1.0015   24.4162    3.1507 C   0  0  0  0  0  0  0  0  0  0  0  0
   -3.3824   26.0090    4.5774 C   0  0  0  0  0  0  0  0  0  0  0  0
   -4.3359   26.7157    5.4946 C   0  0  0  0  0  0  0  0  0  0  0  0
   -5.2894   27.4225    6.4118 C   0  0  0  0  0  0  0  0  0  0  0  0
   -6.2429   28.1294    7.3291 S   0  0  0  0  0  0  0  0  0  0  0  0
   -5.4732   26.3681    4.5804 C   0  0  0  0  0  0  0  0  0  0  0  0
   -6.8679   26.2831    4.0350 C   0  0  0  0  0  0  0  0  0  0  0  0
   -6.6096   27.0038    5.3249 C   0  0  0  0  0  0  0  0  0  0  0  0
   -7.7461   27.6395    6.0695 C   0  0  0  0  0  0  0  0  0  0  0  0
   -6.3513   27.7244    6.6149 C   0  0  0  0  0  0  0  0  0  0  0  0
   -6.0931   28.4451    7.9048 C   0  0  0  0  0  0  0  0  0  0  0  0
   -4.9566   27.8094    7.1603 C   0  0  0  0  0  0  0  0  0  0  0  0
   -3.8194   28.1570    8.0745 C   0  0  0  0  0  0  0  0  0  0  0  0
   -2.6822   28.5047    8.9888 C   0  0  0  0  0  0  0  0  0  0  0  0
   -1.5450   28.8524    9.9030 C   0  0  0  0  0  0  0  0  0  0  0  0
   -0.1502   28.9373   10.4484 C   0  0  0  0  0  0  0  0  0  0  0  0
   -0.4085   28.2167    9.1584 C   0  0  0  0  0  0  0  0  0  0  0  0
   -1.9839   23.9398    1.4932 H   0  0  0  0  0  0  0  0  0  0  0  0
   -4.3991   24.6978    2.0780 H   0  0  0  0  0  0  0  0  0  0  0  0
   -0.8897   24.4802    2.7081 H   0  0  0  0  0  0  0  0  0  0  0  0
   -1.2249   26.0338    5.2459 H   0  0  0  0  0  0  0  0  0  0  0  0
    0.4953   25.9655    5.6149 H   0  0  0  0  0  0  0  0  0  0  0  0
    2.4645   25.5382    5.4594 H   0  0  0  0  0  0  0  0  0  0  0  0
    3.2411   24.3378    3.6602 H   0  0  0  0  0  0  0  0  0  0  0  0
    1.9550   23.7094    2.2335 H   0  0  0  0  0  0  0  0  0  0  0  0
   -0.1843   24.1047    2.2864 H   0  0  0  0  0  0  0  0  0  0  0  0
   -4.3951   25.5774    3.5583 H   0  0  0  0  0  0  0  0  0  0  0  0
   -2.2451   26.3569    5.4914 H   0  0  0  0  0  0  0  0  0  0  0  0
   -3.0909   26.9747    6.2902 H   0  0  0  0  0  0  0  0  0  0  0  0
   -4.1524   27.7694    7.3266 H   0  0  0  0  0  0  0  0  0  0  0  0
   -6.6234   27.2570    5.7462 H   0  0  0  0  0  0  0  0  0  0  0  0
   -7.7251   28.2760    7.1516 H   0  0  0  0  0  0  0  0  0  0  0  0
   -4.8939   25.5905    3.4359 H   0  0  0  0  0  0  0  0  0  0  0  0
   -6.6108   25.4972    2.7835 H   0  0  0  0  0  0  0  0  0  0  0  0
   -8.3520   26.4711    3.9242 H   0  0  0  0  0  0  0  0  0  0  0  0
   -8.8834   27.2918    5.1552 H   0  0  0  0  0  0  0  0  0  0  0  0
   -8.6388   28.3635    7.0333 H   0  0  0  0  0  0  0  0  0  0  0  0
   -7.4874   28.8833    8.2420 H   0  0  0  0  0  0  0  0  0  0  0  0
   -5.5127   29.0757    9.1358 H   0  0  0  0  0  0  0  0  0  0  0  0
   -3.9261   27.1286    6.3091 H   0  0  0  0  0  0  0  0  0  0  0  0
   -2.7350   27.4946    7.2775 H   0  0  0  0  0  0  0  0  0  0  0  0
   -4.6266   28.9042    9.0944 H   0  0  0  0  0  0  0  0  0  0  0  0
   -3.6349   29.2161    9.9033 H   0  0  0  0  0  0  0  0  0  0  0  0
   -1.8752   27.7562    7.9696 H   0  0  0  0  0  0  0  0  0  0  0  0
   -2.2864   29.6088   10.9651 H   0  0  0  0  0  0  0  0  0  0  0  0
   -0.4073   29.7232   11.6998 H   0  0  0  0  0  0  0  0  0  0  0  0
    1.3338   28.7493   10.5591 H   0  0  0  0  0  0  0  0  0  0  0  0
    0.9859   27.7784    8.8212 H   0  0  0  0  0  0  0  0  0  0  0  0
   -0.9888   27.5860    7.9274 H   0  0  0  0  0  0  0  0  0  0  0  0
  1  2  2  3
  2  3  1  0
  3  4  1  0
  4  5  1  0
  5  6  1  0
  2  7  1  0
  7  8  1  0
  8  9  1  0
  9 10  1  0
  8 11  1  0
 11 12  1  0
 12 13  1  0
 13 14  1  0
 14 15  1  0
 15 16  1  0
 16 17  1  0
 17 18  1  0
 18 19  1  0
 19 20  1  0
 20 21  1  0
 21 22  1  0
  6  4  1  0
 13 11  1  0
 17 15  1  0
 22 20  1  0
 15 13  1  0
  1 23  1  0
  1 24  1  0
  3 25  1  0
  3 26  1  0
  4 27  1  0
  5 28  1  0
  5 29  1  0
  6 30  1  0
  6 31  1  0
  7 32  1  0
  7 33  1  0
  8 34  1  0
  9 35  1  0
  9 36  1  0
 10 37  1  0
 11 38  1  0
 12 39  1  0
 12 40  1  0
 14 41  1  0
 14 42  1  0
 16 43  1  0
 16 44  1  0
 17 45  1  0
 18 46  1  0
 18 47  1  0
 19 48  1  0
 19 49  1  0
 20 50  1  0
 21 51  1  0
 21 52  1  0
 22 53  1  0
 22 54  1  0
M  END
