
     RDKit          2D

 48 48  0  0  0  0  0  0  0  0999 V2000
   -3.6931   29.6048   10.4926 C   0  0  0  0  0  0  0  0  0  0  0  0
   -3.3065   28.4158    9.6640 C   0  0  0  0  0  0  0  0  0  0  0  0
   -2.9198   27.2267    8.8353 C   0  0  0  0  0  0  0  0  0  0  0  0
   -2.5332   26.0377    8.0066 C   0  0  0  0  0  0  0  0  0  0  0  0
   -2.1466   24.8487    7.1779 C   0  0  0  0  0  0  0  0  0  0  0  0
   -1.7599   23.6596    6.3492 C   0  0  0  0  0  0  0  0  0  0  0  0
   -0.7452   25.3742    7.0778 C   0  0  0  0  0  0  0  0  0  0  0  0
   -1.1754   26.6481    7.7425 N   0  0  0  0  0  0  0  0  0  0  0  0
   -0.1769   27.7403    7.9880 N   0  0  0  0  0  0  0  0  0  0  0  0
   -0.2298   29.1069    8.6041 C   0  0  0  0  0  0  0  0  0  0  0  0
    1.2352   29.2848    8.3352 N   0  0  0  0  0  0  0  0  0  0  0  0
    1.2881   27.9181    7.7191 O   0  0  0  0  0  0  0  0  0  0  0  0
    0.6562   25.8997    6.9776 C   0  0  0  0  0  0  0  0  0  0  0  0
    0.9833   27.2675    7.4990 N   0  0  0  0  0  0  0  0  0  0  0  0
    1.7304   25.0573    6.3561 N   0  0  0  0  0  0  0  0  0  0  0  0
    3.1318   25.5827    6.2559 C   0  0  0  0  0  0  0  0  0  0  0  0
    4.5332   26.1082    6.1558 C   0  0  0  0  0  0  0  0  0  0  0  0
    5.9345   26.6338    6.0557 C   0  0  0  0  0  0  0  0  0  0  0  0
    4.9637   24.8338    5.4923 C   0  0  0  0  0  0  0  0  0  0  0  0
   -4.0798   30.7939   11.3213 H   0  0  0  0  0  0  0  0  0  0  0  0
   -5.0909   29.0723   10.6046 H   0  0  0  0  0  0  0  0  0  0  0  0
   -2.2953   30.1373   10.3806 H   0  0  0  0  0  0  0  0  0  0  0  0
   -1.9623   29.0816    9.6667 H   0  0  0  0  0  0  0  0  0  0  0  0
   -4.7082   27.8910    9.7630 H   0  0  0  0  0  0  0  0  0  0  0  0
   -1.5198   27.7549    8.7305 H   0  0  0  0  0  0  0  0  0  0  0  0
   -4.3198   26.6985    8.9400 H   0  0  0  0  0  0  0  0  0  0  0  0
   -1.2518   26.4517    8.6674 H   0  0  0  0  0  0  0  0  0  0  0  0
   -3.9502   25.9076    7.5322 H   0  0  0  0  0  0  0  0  0  0  0  0
   -3.5479   24.3232    7.2781 H   0  0  0  0  0  0  0  0  0  0  0  0
   -1.3732   22.4707    5.5206 H   0  0  0  0  0  0  0  0  0  0  0  0
   -0.3576   24.1832    6.2525 H   0  0  0  0  0  0  0  0  0  0  0  0
   -3.1046   22.9951    6.3443 H   0  0  0  0  0  0  0  0  0  0  0  0
   -0.1474   24.1737    6.4058 H   0  0  0  0  0  0  0  0  0  0  0  0
   -2.2827   27.4503    8.3593 H   0  0  0  0  0  0  0  0  0  0  0  0
   -1.6903   29.0969    8.9460 H   0  0  0  0  0  0  0  0  0  0  0  0
   -0.2826   30.4735    9.2202 H   0  0  0  0  0  0  0  0  0  0  0  0
    2.2337   30.3769    8.5808 H   0  0  0  0  0  0  0  0  0  0  0  0
    2.3847   27.7931    7.3989 H   0  0  0  0  0  0  0  0  0  0  0  0
    1.4033   23.6893    5.8347 H   0  0  0  0  0  0  0  0  0  0  0  0
    2.5329   26.7851    6.9233 H   0  0  0  0  0  0  0  0  0  0  0  0
    3.5631   24.3067    5.5958 H   0  0  0  0  0  0  0  0  0  0  0  0
    4.1026   27.3828    6.8193 H   0  0  0  0  0  0  0  0  0  0  0  0
    7.3358   27.1593    5.9555 H   0  0  0  0  0  0  0  0  0  0  0  0
    5.6613   27.5781    7.1887 H   0  0  0  0  0  0  0  0  0  0  0  0
    6.3764   25.7606    4.9190 H   0  0  0  0  0  0  0  0  0  0  0  0
    5.3943   23.5593    4.8288 H   0  0  0  0  0  0  0  0  0  0  0  0
    6.2895   25.3265    4.9928 H   0  0  0  0  0  0  0  0  0  0  0  0
    3.7428   24.0303    5.8300 H   0  0  0  0  0  0  0  0  0  0  0  0
  1  2  1  0
  2  3  1  0
  3  4  1  0
  4  5  1  0
  5  6  1  0
  5  7  1  0
  7  8  1  0
  8  9  1  0
  9 10  1  0
 10 11  1  0
 11 12  1  0
  7 13  1  0
 13 14  2  3
 13 15  1  0
 15 16  1  0
 16 17  1  0
 17 18  1  0
 17 19  1  0
 12  9  1  0
  1 20  1  0
  1 21  1  0
  1 22  1  0
  2 23  1  0
  2 24  1  0
  3 25  1  0
  3 26  1  0
  4 27  1  0
  4 28  1  0
  5 29  1  0
  6 30  1  0
  6 31  1  0
  6 32  1  0
  7 33  1  0
  8 34  1  0
 10 35  1  0
 10 36  1  0
 11 37  1  0
 14 38  1  0
 15 39  1  0
 16 40  1  0
 16 41  1  0
 17 42  1  0
 18 43  1  0
 18 44  1  0
 18 45  1  0
 19 46  1  0
 19 47  1  0
 19 48  1  0
M  END
