
     RDKit          2D

 35 38  0  0  0  0  0  0  0  0999 V2000
   16.4917  -22.9596   -3.9610 C   0  0  0  0  0  0  0  0  0  0  0  0
   16.7756  -23.4590   -5.3467 C   0  0  0  0  0  0  0  0  0  0  0  0
   17.0595  -23.9582   -6.7324 C   0  0  0  0  0  0  0  0  0  0  0  0
   17.3434  -24.4576   -8.1180 C   0  0  0  0  0  0  0  0  0  0  0  0
   17.5327  -23.1519   -8.8317 C   0  0  0  0  0  0  0  0  0  0  0  0
   17.8241  -22.3898  -10.0904 N   0  0  0  0  0  0  0  0  0  0  0  0
   17.9409  -20.9377  -10.4482 C   0  0  0  0  0  0  0  0  0  0  0  0
   17.6705  -20.3171   -9.1096 N   0  0  0  0  0  0  0  0  0  0  0  0
   18.1517  -19.7013  -11.2708 C   0  0  0  0  0  0  0  0  0  0  0  0
   18.2520  -21.0542  -11.9109 C   0  0  0  0  0  0  0  0  0  0  0  0
   18.5660  -20.6522  -13.3215 N   0  0  0  0  0  0  0  0  0  0  0  0
   18.6829  -19.2003  -13.6793 O   0  0  0  0  0  0  0  0  0  0  0  0
   17.9502  -23.6811  -10.8431 C   0  0  0  0  0  0  0  0  0  0  0  0
   18.2643  -23.2792  -12.2537 N   0  0  0  0  0  0  0  0  0  0  0  0
   17.9137  -25.1805  -10.8656 N   0  0  0  0  0  0  0  0  0  0  0  0
   17.6588  -24.4433   -9.5844 C   0  0  0  0  0  0  0  0  0  0  0  0
   16.2078  -22.4603   -2.5753 H   0  0  0  0  0  0  0  0  0  0  0  0
   15.6486  -24.1718   -3.6970 H   0  0  0  0  0  0  0  0  0  0  0  0
   17.3348  -21.7474   -4.2251 H   0  0  0  0  0  0  0  0  0  0  0  0
   16.6328  -24.8728   -4.8664 H   0  0  0  0  0  0  0  0  0  0  0  0
   16.9184  -22.0451   -5.8270 H   0  0  0  0  0  0  0  0  0  0  0  0
   16.9199  -25.3722   -6.2514 H   0  0  0  0  0  0  0  0  0  0  0  0
   17.1634  -22.4940   -7.0408 H   0  0  0  0  0  0  0  0  0  0  0  0
   17.2527  -25.9367   -7.8856 H   0  0  0  0  0  0  0  0  0  0  0  0
   17.3838  -22.0964   -8.0033 H   0  0  0  0  0  0  0  0  0  0  0  0
   17.6794  -18.8248   -8.9594 H   0  0  0  0  0  0  0  0  0  0  0  0
   17.4191  -21.1018   -8.0402 H   0  0  0  0  0  0  0  0  0  0  0  0
   17.9545  -18.6512  -10.2180 H   0  0  0  0  0  0  0  0  0  0  0  0
   18.4310  -18.8296  -12.4591 H   0  0  0  0  0  0  0  0  0  0  0  0
   18.2882  -21.8051  -12.1760 H   0  0  0  0  0  0  0  0  0  0  0  0
   18.7633  -21.7023  -14.3743 H   0  0  0  0  0  0  0  0  0  0  0  0
   18.4856  -18.1502  -12.6265 H   0  0  0  0  0  0  0  0  0  0  0  0
   18.3333  -22.4218  -12.4649 H   0  0  0  0  0  0  0  0  0  0  0  0
   18.4615  -24.3293  -13.3065 H   0  0  0  0  0  0  0  0  0  0  0  0
   18.0398  -26.4718  -11.6183 H   0  0  0  0  0  0  0  0  0  0  0  0
  1  2  1  0
  2  3  1  0
  3  4  1  0
  4  5  1  0
  5  6  1  0
  6  7  1  0
  7  8  1  0
  7  9  1  0
  9 10  1  0
 10 11  1  0
 11 12  1  0
  6 13  1  0
 13 14  1  0
 13 15  1  0
 15 16  1  0
 16  4  1  0
 16  5  1  0
 10  7  1  0
 16 13  1  0
  1 17  1  0
  1 18  1  0
  1 19  1  0
  2 20  1  0
  2 21  1  0
  3 22  1  0
  3 23  1  0
  4 24  1  0
  5 25  1  0
  8 26  1  0
  8 27  1  0
  9 28  1  0
  9 29  1  0
 10 30  1  0
 11 31  1  0
 12 32  1  0
 14 33  1  0
 14 34  1  0
 15 35  1  0
M  END
