
     RDKit          2D

 76 84  0  0  0  0  0  0  0  0999 V2000
    4.7936   23.1855   15.3901 C   0  0  0  0  0  0  0  0  0  0  0  0
    4.0774   23.0453   14.0797 C   0  0  0  0  0  0  0  0  0  0  0  0
    3.6704   24.2685   13.3128 C   0  0  0  0  0  0  0  0  0  0  0  0
    3.9880   24.6867   14.7178 C   0  0  0  0  0  0  0  0  0  0  0  0
    3.7774   26.1684   14.8192 C   0  0  0  0  0  0  0  0  0  0  0  0
    3.3296   26.6658   13.4768 C   0  0  0  0  0  0  0  0  0  0  0  0
    3.2634   25.4916   12.5458 C   0  0  0  0  0  0  0  0  0  0  0  0
    2.9458   25.0733   11.1407 C   0  0  0  0  0  0  0  0  0  0  0  0
    2.7352   26.5550   11.2421 C   0  0  0  0  0  0  0  0  0  0  0  0
    2.3328   26.5967    9.7978 C   0  0  0  0  0  0  0  0  0  0  0  0
    1.9303   26.6383    8.3533 C   0  0  0  0  0  0  0  0  0  0  0  0
    1.5279   26.6799    6.9089 C   0  0  0  0  0  0  0  0  0  0  0  0
    1.1255   26.7216    5.4645 C   0  0  0  0  0  0  0  0  0  0  0  0
    0.9060   28.2018    5.5683 C   0  0  0  0  0  0  0  0  0  0  0  0
    1.0353   29.2190    6.6631 C   0  0  0  0  0  0  0  0  0  0  0  0
    0.5036   28.2434    4.1239 C   0  0  0  0  0  0  0  0  0  0  0  0
    0.2648   27.5394    2.8211 C   0  0  0  0  0  0  0  0  0  0  0  0
   -0.1934   28.3156    1.6221 C   0  0  0  0  0  0  0  0  0  0  0  0
   -0.4322   27.6115    0.3193 C   0  0  0  0  0  0  0  0  0  0  0  0
   -0.8904   28.3876   -0.8797 C   0  0  0  0  0  0  0  0  0  0  0  0
   -1.3172   29.5483   -1.7286 C   0  0  0  0  0  0  0  0  0  0  0  0
   -1.1292   27.6836   -2.1825 C   0  0  0  0  0  0  0  0  0  0  0  0
   -0.9097   26.2034   -2.2863 C   0  0  0  0  0  0  0  0  0  0  0  0
   -0.4514   25.4273   -1.0873 C   0  0  0  0  0  0  0  0  0  0  0  0
   -0.2127   26.1313    0.2155 C   0  0  0  0  0  0  0  0  0  0  0  0
    0.2456   25.3551    1.4144 O   0  0  0  0  0  0  0  0  0  0  0  0
    0.4843   26.0591    2.7172 C   0  0  0  0  0  0  0  0  0  0  0  0
    0.8757   24.7564    3.3495 C   0  0  0  0  0  0  0  0  0  0  0  0
    1.2670   23.4537    3.9818 C   0  0  0  0  0  0  0  0  0  0  0  0
    0.7231   26.7632    4.0201 C   0  0  0  0  0  0  0  0  0  0  0  0
    2.5434   25.1149    9.6963 C   0  0  0  0  0  0  0  0  0  0  0  0
    2.7541   23.6333    9.5949 C   0  0  0  0  0  0  0  0  0  0  0  0
    3.1565   23.5917   11.0393 C   0  0  0  0  0  0  0  0  0  0  0  0
    3.6043   23.0943   12.3817 C   0  0  0  0  0  0  0  0  0  0  0  0
    5.2006   21.9623   16.1572 H   0  0  0  0  0  0  0  0  0  0  0  0
    4.9988   23.8642   15.7546 H   0  0  0  0  0  0  0  0  0  0  0  0
    3.8494   21.6158   13.6865 H   0  0  0  0  0  0  0  0  0  0  0  0
    4.2236   24.4616   15.4454 H   0  0  0  0  0  0  0  0  0  0  0  0
    3.9791   27.0056   16.0473 H   0  0  0  0  0  0  0  0  0  0  0  0
    3.3008   28.0024   14.1569 H   0  0  0  0  0  0  0  0  0  0  0  0
    2.8814   27.5908   12.3843 H   0  0  0  0  0  0  0  0  0  0  0  0
    2.8841   26.8077   11.9343 H   0  0  0  0  0  0  0  0  0  0  0  0
    2.5245   28.0367   11.3435 H   0  0  0  0  0  0  0  0  0  0  0  0
    3.1376   26.5134   12.6865 H   0  0  0  0  0  0  0  0  0  0  0  0
    2.1221   28.0783    9.8991 H   0  0  0  0  0  0  0  0  0  0  0  0
    1.7676   28.1034    8.6308 H   0  0  0  0  0  0  0  0  0  0  0  0
    2.0931   25.1732    8.0759 H   0  0  0  0  0  0  0  0  0  0  0  0
    1.3118   28.1607    7.0118 H   0  0  0  0  0  0  0  0  0  0  0  0
    1.7441   25.1991    6.8060 H   0  0  0  0  0  0  0  0  0  0  0  0
    1.3924   25.2474    5.5375 H   0  0  0  0  0  0  0  0  0  0  0  0
    1.4644   28.9719    8.0790 H   0  0  0  0  0  0  0  0  0  0  0  0
    0.7191   30.6596    6.3895 H   0  0  0  0  0  0  0  0  0  0  0  0
    0.1874   29.6840    3.8503 H   0  0  0  0  0  0  0  0  0  0  0  0
   -0.5671   29.6642    1.0823 H   0  0  0  0  0  0  0  0  0  0  0  0
   -0.1029   29.4227    2.6301 H   0  0  0  0  0  0  0  0  0  0  0  0
   -0.6517   29.0917    0.4231 H   0  0  0  0  0  0  0  0  0  0  0  0
   -0.9113   29.6999   -0.1532 H   0  0  0  0  0  0  0  0  0  0  0  0
   -1.7441   30.7090   -2.5776 H   0  0  0  0  0  0  0  0  0  0  0  0
   -1.1528   30.4674   -0.5547 H   0  0  0  0  0  0  0  0  0  0  0  0
   -1.5326   28.7776   -2.9973 H   0  0  0  0  0  0  0  0  0  0  0  0
   -1.5854   28.3003   -3.4715 H   0  0  0  0  0  0  0  0  0  0  0  0
   -1.1484   25.4993   -3.5892 H   0  0  0  0  0  0  0  0  0  0  0  0
   -0.0481   24.1632   -0.3878 H   0  0  0  0  0  0  0  0  0  0  0  0
   -0.5419   24.3201   -2.0953 H   0  0  0  0  0  0  0  0  0  0  0  0
    0.0543   24.6570    0.2885 H   0  0  0  0  0  0  0  0  0  0  0  0
    0.6405   24.0530    2.0457 H   0  0  0  0  0  0  0  0  0  0  0  0
    1.1568   25.2959    4.7207 H   0  0  0  0  0  0  0  0  0  0  0  0
    1.6583   22.1510    4.6141 H   0  0  0  0  0  0  0  0  0  0  0  0
    1.0249   22.7491    2.6799 H   0  0  0  0  0  0  0  0  0  0  0  0
    1.5090   24.1583    5.2838 H   0  0  0  0  0  0  0  0  0  0  0  0
    2.1697   24.9757    8.2503 H   0  0  0  0  0  0  0  0  0  0  0  0
    2.9647   22.1517    9.4936 H   0  0  0  0  0  0  0  0  0  0  0  0
    2.3516   23.6750    8.1505 H   0  0  0  0  0  0  0  0  0  0  0  0
    3.3016   22.1348   10.7132 H   0  0  0  0  0  0  0  0  0  0  0  0
    3.6331   21.7576   11.7016 H   0  0  0  0  0  0  0  0  0  0  0  0
    4.0524   22.1692   13.4742 H   0  0  0  0  0  0  0  0  0  0  0  0
  1  2  2  3
  2  3  1  0
  3  4  1  0
  4  5  2  0
  5  6  1  0
  6  7  1  0
  7  8  1  0
  8  9  1  0
  9 10  1  0
 10 11  1  0
 11 12  1  0
 12 13  1  0
 13 14  1  0
 14 15  2  3
 14 16  1  0
 16 17  1  0
 17 18  1  0
 18 19  1  0
 19 20  1  0
 20 21  1  0
 20 22  1  0
 22 23  2  0
 23 24  1  0
 24 25  1  0
 25 26  1  0
 26 27  1  0
 27 28  1  0
 28 29  1  0
 27 30  1  0
 10 31  1  0
 31 32  1  0
 32 33  1  0
 33 34  1  0
  7  3  1  0
 31  8  1  0
 34  3  1  0
 33  8  1  0
 30 13  1  0
 30 16  1  0
 27 17  1  0
 30 17  1  0
 25 19  1  0
  1 35  1  0
  1 36  1  0
  2 37  1  0
  4 38  1  0
  5 39  1  0
  6 40  1  0
  6 41  1  0
  7 42  1  0
  9 43  1  0
  9 44  1  0
 10 45  1  0
 11 46  1  0
 11 47  1  0
 12 48  1  0
 12 49  1  0
 13 50  1  0
 15 51  1  0
 15 52  1  0
 16 53  1  0
 18 54  1  0
 18 55  1  0
 19 56  1  0
 20 57  1  0
 21 58  1  0
 21 59  1  0
 21 60  1  0
 22 61  1  0
 23 62  1  0
 24 63  1  0
 24 64  1  0
 25 65  1  0
 28 66  1  0
 28 67  1  0
 29 68  1  0
 29 69  1  0
 29 70  1  0
 31 71  1  0
 32 72  1  0
 32 73  1  0
 33 74  1  0
 34 75  1  0
 34 76  1  0
M  END
