
     RDKit          2D

103108  0  0  0  0  0  0  0  0999 V2000
   16.1011  -16.9792   -7.1945 C   0  0  0  0  0  0  0  0  0  0  0  0
   16.6469  -16.8359   -8.5843 C   0  0  0  0  0  0  0  0  0  0  0  0
   18.1350  -16.9710   -8.7163 C   0  0  0  0  0  0  0  0  0  0  0  0
   18.9760  -16.8801   -9.9549 C   0  0  0  0  0  0  0  0  0  0  0  0
   20.2687  -16.9046  -10.7156 C   0  0  0  0  0  0  0  0  0  0  0  0
   21.5613  -16.9291  -11.4762 As  0  0  0  0  0  3  0  0  0  0  0  0
   22.8533  -17.1670  -10.7521 C   0  0  0  0  0  0  0  0  0  0  0  0
   24.1451  -17.4048  -10.0280 C   0  0  0  0  0  0  0  0  0  0  0  0
   25.4370  -17.6427   -9.3039 C   0  0  0  0  0  0  0  0  0  0  0  0
   26.7290  -17.8806   -8.5798 C   0  0  0  0  0  0  0  0  0  0  0  0
   27.8374  -18.1360   -7.6020 C   0  0  0  0  0  0  0  0  0  0  0  0
   29.1301  -18.1604   -8.3627 S   0  0  0  0  0  0  0  0  0  0  0  0
   28.8205  -17.9201   -9.8105 C   0  0  0  0  0  0  0  0  0  0  0  0
   30.3046  -18.0484   -9.9867 C   0  0  0  0  0  0  0  0  0  0  0  0
   27.3366  -17.7472   -9.9448 C   0  0  0  0  0  0  0  0  0  0  0  0
   18.5369  -16.6315  -11.3675 C   0  0  0  0  0  0  0  0  0  0  0  0
   17.1481  -16.4125  -11.8903 C   0  0  0  0  0  0  0  0  0  0  0  0
   16.1336  -16.1531  -12.9644 C   0  0  0  0  0  0  0  0  0  0  0  0
   15.8555  -16.3881  -11.1296 C   0  0  0  0  0  0  0  0  0  0  0  0
   15.6324  -16.5764   -9.6584 C   0  0  0  0  0  0  0  0  0  0  0  0
   14.7914  -16.6674   -8.4198 O   0  0  0  0  0  0  0  0  0  0  0  0
   13.3033  -16.5004   -8.5096 O   0  0  0  0  0  0  0  0  0  0  0  0
   12.4622  -16.5914   -7.2710 C   0  0  0  0  0  0  0  0  0  0  0  0
   11.2318  -16.3262   -8.0870 N   0  0  0  0  0  0  0  0  0  0  0  0
   10.3908  -16.4171   -6.8484 C   0  0  0  0  0  0  0  0  0  0  0  0
    9.5496  -16.5081   -5.6097 C   0  0  0  0  0  0  0  0  0  0  0  0
   11.6210  -16.6823   -6.0323 C   0  0  0  0  0  0  0  0  0  0  0  0
   12.8514  -16.9475   -5.2164 N   0  0  0  0  0  0  0  0  0  0  0  0
   14.3377  -17.1298   -5.1287 C   0  0  0  0  0  0  0  0  0  0  0  0
   13.4962  -17.2246   -3.8906 C   0  0  0  0  0  0  0  0  0  0  0  0
   14.5617  -17.5022   -2.8721 C   0  0  0  0  0  0  0  0  0  0  0  0
   15.8702  -17.5382   -3.6046 F   0  0  0  0  0  0  0  0  0  0  0  0
   13.7201  -17.5970   -1.6340 C   0  0  0  0  0  0  0  0  0  0  0  0
   14.3648  -17.8740   -0.3082 C   0  0  0  0  0  0  0  0  0  0  0  0
   13.1533  -17.8724    0.5760 N   0  0  0  0  0  0  0  0  0  0  0  0
   13.2994  -18.1155    2.0490 C   0  0  0  0  0  0  0  0  0  0  0  0
   12.0878  -18.1138    2.9333 O   0  0  0  0  0  0  0  0  0  0  0  0
   11.7955  -17.6277   -0.0125 C   0  0  0  0  0  0  0  0  0  0  0  0
   10.4376  -17.3829   -0.6012 C   0  0  0  0  0  0  0  0  0  0  0  0
   15.2064  -17.7793   -1.5463 C   0  0  0  0  0  0  0  0  0  0  0  0
   16.6928  -17.9616   -1.4586 C   0  0  0  0  0  0  0  0  0  0  0  0
   18.1790  -18.1438   -1.3710 C   0  0  0  0  0  0  0  0  0  0  0  0
   19.6653  -18.3261   -1.2833 C   0  0  0  0  0  0  0  0  0  0  0  0
   21.1516  -18.5084   -1.1955 C   0  0  0  0  0  0  0  0  0  0  0  0
   14.6095  -16.8336   -7.1328 H   0  0  0  0  0  0  0  0  0  0  0  0
   17.0309  -17.2405   -6.0468 H   0  0  0  0  0  0  0  0  0  0  0  0
   19.4469  -17.2058   -8.0280 H   0  0  0  0  0  0  0  0  0  0  0  0
   17.9119  -17.1594   -7.2451 H   0  0  0  0  0  0  0  0  0  0  0  0
   20.1163  -17.1334   -9.0139 H   0  0  0  0  0  0  0  0  0  0  0  0
   21.0131  -17.1754   -9.4419 H   0  0  0  0  0  0  0  0  0  0  0  0
   19.6874  -16.6388  -12.0726 H   0  0  0  0  0  0  0  0  0  0  0  0
   21.5619  -16.7157  -12.9609 H   0  0  0  0  0  0  0  0  0  0  0  0
   22.1068  -17.2735   -9.4554 H   0  0  0  0  0  0  0  0  0  0  0  0
   23.5996  -17.0605  -12.0489 H   0  0  0  0  0  0  0  0  0  0  0  0
   23.4351  -17.2626   -8.7145 H   0  0  0  0  0  0  0  0  0  0  0  0
   24.8553  -17.5471  -11.3417 H   0  0  0  0  0  0  0  0  0  0  0  0
   25.7473  -17.5695  -10.0346 H   0  0  0  0  0  0  0  0  0  0  0  0
   24.6904  -17.7524   -8.0076 H   0  0  0  0  0  0  0  0  0  0  0  0
   25.8514  -17.9643   -7.3662 H   0  0  0  0  0  0  0  0  0  0  0  0
   26.7281  -18.1663   -6.5929 H   0  0  0  0  0  0  0  0  0  0  0  0
   28.7140  -18.3977   -6.4132 H   0  0  0  0  0  0  0  0  0  0  0  0
   28.8211  -17.7067  -11.2953 H   0  0  0  0  0  0  0  0  0  0  0  0
   31.7887  -18.1767  -10.1629 H   0  0  0  0  0  0  0  0  0  0  0  0
   30.1872  -17.4969  -11.3768 H   0  0  0  0  0  0  0  0  0  0  0  0
   30.4219  -18.5999   -8.5967 H   0  0  0  0  0  0  0  0  0  0  0  0
   27.6475  -17.5699  -11.4014 H   0  0  0  0  0  0  0  0  0  0  0  0
   26.6180  -17.6263  -10.2681 H   0  0  0  0  0  0  0  0  0  0  0  0
   18.9382  -16.4666  -12.8034 H   0  0  0  0  0  0  0  0  0  0  0  0
   20.0003  -16.7383  -11.6788 H   0  0  0  0  0  0  0  0  0  0  0  0
   17.8327  -16.2923  -13.2196 H   0  0  0  0  0  0  0  0  0  0  0  0
   15.1192  -15.8936  -14.0384 H   0  0  0  0  0  0  0  0  0  0  0  0
   17.2281  -16.1181  -13.9896 H   0  0  0  0  0  0  0  0  0  0  0  0
   14.9237  -16.1561  -12.0777 H   0  0  0  0  0  0  0  0  0  0  0  0
   14.3651  -16.2266  -11.1789 H   0  0  0  0  0  0  0  0  0  0  0  0
   15.2458  -16.1314  -12.4758 H   0  0  0  0  0  0  0  0  0  0  0  0
   14.1874  -16.3766  -10.0079 H   0  0  0  0  0  0  0  0  0  0  0  0
   13.6926  -16.8566   -6.4550 H   0  0  0  0  0  0  0  0  0  0  0  0
   10.9567  -16.0743   -9.5399 H   0  0  0  0  0  0  0  0  0  0  0  0
    9.1604  -16.1519   -7.6644 H   0  0  0  0  0  0  0  0  0  0  0  0
    8.7085  -16.5991   -4.3711 H   0  0  0  0  0  0  0  0  0  0  0  0
    8.3300  -16.7302   -6.4543 H   0  0  0  0  0  0  0  0  0  0  0  0
   10.6576  -16.2987   -4.6206 H   0  0  0  0  0  0  0  0  0  0  0  0
   10.9362  -16.8049   -4.7035 H   0  0  0  0  0  0  0  0  0  0  0  0
   14.5289  -16.9250   -6.6023 H   0  0  0  0  0  0  0  0  0  0  0  0
   15.7604  -17.3557   -4.7103 H   0  0  0  0  0  0  0  0  0  0  0  0
   12.2846  -17.2229   -3.0064 H   0  0  0  0  0  0  0  0  0  0  0  0
   12.2588  -17.3899   -1.9013 H   0  0  0  0  0  0  0  0  0  0  0  0
   15.4303  -18.1517    0.7104 H   0  0  0  0  0  0  0  0  0  0  0  0
   14.6573  -18.3602    2.6377 H   0  0  0  0  0  0  0  0  0  0  0  0
   12.2403  -17.4615   -1.4354 H   0  0  0  0  0  0  0  0  0  0  0  0
   11.1805  -17.7650    1.3487 H   0  0  0  0  0  0  0  0  0  0  0  0
    9.0799  -17.1382   -1.1899 H   0  0  0  0  0  0  0  0  0  0  0  0
    9.8204  -17.5421    0.7566 H   0  0  0  0  0  0  0  0  0  0  0  0
   11.0550  -17.2238   -1.9590 H   0  0  0  0  0  0  0  0  0  0  0  0
   16.5783  -18.1836    0.0204 H   0  0  0  0  0  0  0  0  0  0  0  0
   16.8072  -17.7395   -2.9377 H   0  0  0  0  0  0  0  0  0  0  0  0
   18.2933  -17.9236   -2.8502 H   0  0  0  0  0  0  0  0  0  0  0  0
   18.0648  -18.3641    0.1084 H   0  0  0  0  0  0  0  0  0  0  0  0
   19.7795  -18.1069   -2.7628 H   0  0  0  0  0  0  0  0  0  0  0  0
   19.5510  -18.5454    0.1962 H   0  0  0  0  0  0  0  0  0  0  0  0
   22.6379  -18.6908   -1.1077 H   0  0  0  0  0  0  0  0  0  0  0  0
   21.0373  -18.7285    0.2839 H   0  0  0  0  0  0  0  0  0  0  0  0
   21.2660  -18.2884   -2.6748 H   0  0  0  0  0  0  0  0  0  0  0  0
  1  2  2  3
  2  3  1  0
  3  4  1  0
  4  5  1  0
  5  6  1  0
  6  7  1  0
  7  8  1  0
  8  9  1  0
  9 10  1  0
 10 11  1  0
 11 12  1  0
 12 13  1  0
 13 14  1  0
 13 15  1  0
  4 16  1  0
 16 17  1  0
 17 18  1  0
 17 19  1  0
 19 20  1  0
 20 21  1  0
 21 22  1  0
 22 23  1  0
 23 24  1  0
 24 25  1  0
 25 26  1  0
 25 27  1  0
 27 28  1  0
 28 29  1  0
 29 30  1  0
 30 31  1  0
 31 32  1  0
 31 33  1  0
 33 34  1  0
 34 35  1  0
 35 36  1  0
 36 37  2  0
 35 38  1  0
 38 39  1  0
 34 40  1  0
 40 41  1  0
 41 42  1  0
 42 43  1  0
 43 44  1  0
 20  2  1  0
 27 23  1  0
 30 28  1  0
 40 31  1  0
 15 10  1  0
 40 33  1  0
  1 45  1  0
  1 46  1  0
  3 47  1  0
  3 48  1  0
  4 49  1  0
  5 50  1  0
  5 51  1  0
  6 52  1  0
  7 53  1  0
  7 54  1  0
  8 55  1  0
  8 56  1  0
  9 57  1  0
  9 58  1  0
 10 59  1  0
 11 60  1  0
 11 61  1  0
 13 62  1  0
 14 63  1  0
 14 64  1  0
 14 65  1  0
 15 66  1  0
 15 67  1  0
 16 68  1  0
 16 69  1  0
 17 70  1  0
 18 71  1  0
 18 72  1  0
 18 73  1  0
 19 74  1  0
 19 75  1  0
 20 76  1  0
 23 77  1  0
 24 78  1  0
 25 79  1  0
 26 80  1  0
 26 81  1  0
 26 82  1  0
 27 83  1  0
 29 84  1  0
 29 85  1  0
 30 86  1  0
 33 87  1  0
 34 88  1  0
 36 89  1  0
 38 90  1  0
 38 91  1  0
 39 92  1  0
 39 93  1  0
 39 94  1  0
 41 95  1  0
 41 96  1  0
 42 97  1  0
 42 98  1  0
 43 99  1  0
 43100  1  0
 44101  1  0
 44102  1  0
 44103  1  0
M  END
