
     RDKit          2D

100104  0  0  0  0  0  0  0  0999 V2000
    1.8705   30.0964   -5.1733 C   0  0  0  0  0  0  0  0  0  0  0  0
    1.0135   30.8797   -4.2233 C   0  0  0  0  0  0  0  0  0  0  0  0
    0.3148   32.1212   -4.6929 C   0  0  0  0  0  0  0  0  0  0  0  0
   -0.3839   33.3627   -5.1623 O   0  0  0  0  0  0  0  0  0  0  0  0
    0.8554   30.4213   -2.8039 C   0  0  0  0  0  0  0  0  0  0  0  0
    0.6972   29.9629   -1.3844 C   0  0  0  0  0  0  0  0  0  0  0  0
   -0.0811   31.2185   -1.6448 C   0  0  0  0  0  0  0  0  0  0  0  0
   -0.9885   32.3499   -1.2621 C   0  0  0  0  0  0  0  0  0  0  0  0
   -1.8454   33.1330   -0.3121 C   0  0  0  0  0  0  0  0  0  0  0  0
   -2.4821   33.4128    1.0170 C   0  0  0  0  0  0  0  0  0  0  0  0
   -2.7723   33.1338    2.4618 C   0  0  0  0  0  0  0  0  0  0  0  0
   -2.6588   32.3513    3.7366 C   0  0  0  0  0  0  0  0  0  0  0  0
   -2.1638   31.2202    4.5884 C   0  0  0  0  0  0  0  0  0  0  0  0
   -1.3855   29.9646    4.8488 C   0  0  0  0  0  0  0  0  0  0  0  0
   -1.7790   29.8369    6.2906 O   0  0  0  0  0  0  0  0  0  0  0  0
   -0.4780   28.8332    4.4661 C   0  0  0  0  0  0  0  0  0  0  0  0
    0.3789   28.0500    3.5161 C   0  0  0  0  0  0  0  0  0  0  0  0
    1.2193   26.8084    3.5616 C   0  0  0  0  0  0  0  0  0  0  0  0
    2.0597   25.5668    3.6070 O   0  0  0  0  0  0  0  0  0  0  0  0
    1.0130   26.7231    5.0448 C   0  0  0  0  0  0  0  0  0  0  0  0
    0.8068   26.6378    6.5281 C   0  0  0  0  0  0  0  0  0  0  0  0
    0.9487   25.1460    6.4620 C   0  0  0  0  0  0  0  0  0  0  0  0
    0.7135   25.4498    7.9121 C   0  0  0  0  0  0  0  0  0  0  0  0
    0.6066   24.6300    9.1637 C   0  0  0  0  0  0  0  0  0  0  0  0
    0.6905   23.1670    9.4838 C   0  0  0  0  0  0  0  0  0  0  0  0
    0.9160   21.9176    8.6849 C   0  0  0  0  0  0  0  0  0  0  0  0
    1.1511   21.6138    7.2349 C   0  0  0  0  0  0  0  0  0  0  0  0
    1.1713   20.2793    7.9194 C   0  0  0  0  0  0  0  0  0  0  0  0
    2.4622   19.7260    8.4462 C   0  0  0  0  0  0  0  0  0  0  0  0
    2.4824   18.3914    9.1307 C   0  0  0  0  0  0  0  0  0  0  0  0
    1.2116   17.6101    9.2883 C   0  0  0  0  0  0  0  0  0  0  0  0
    1.2318   16.2756    9.9728 C   0  0  0  0  0  0  0  0  0  0  0  0
   -0.0793   18.1634    8.7615 C   0  0  0  0  0  0  0  0  0  0  0  0
   -0.0995   19.4980    8.0770 C   0  0  0  0  0  0  0  0  0  0  0  0
    1.2581   22.4336    5.9832 C   0  0  0  0  0  0  0  0  0  0  0  0
    1.1742   23.8966    5.6632 C   0  0  0  0  0  0  0  0  0  0  0  0
    0.6649   28.1296    6.5943 C   0  0  0  0  0  0  0  0  0  0  0  0
    0.8429   28.4726    5.1449 C   0  0  0  0  0  0  0  0  0  0  0  0
    0.7800   29.9036    4.6996 C   0  0  0  0  0  0  0  0  0  0  0  0
    0.6020   29.5606    6.1490 C   0  0  0  0  0  0  0  0  0  0  0  0
    1.0155   27.7703    2.1871 O   0  0  0  0  0  0  0  0  0  0  0  0
    1.3058   28.0492    0.7421 N   0  0  0  0  0  0  0  0  0  0  0  0
    1.1922   28.8318   -0.5325 C   0  0  0  0  0  0  0  0  0  0  0  0
    2.0286   30.5549   -6.5928 H   0  0  0  0  0  0  0  0  0  0  0  0
    2.5691   28.8550   -4.7038 H   0  0  0  0  0  0  0  0  0  0  0  0
   -0.4197   32.6057   -3.4781 H   0  0  0  0  0  0  0  0  0  0  0  0
    0.8976   31.9314   -6.0619 H   0  0  0  0  0  0  0  0  0  0  0  0
   -0.2257   33.8211   -6.5818 H   0  0  0  0  0  0  0  0  0  0  0  0
   -0.0237   31.6326   -2.7039 H   0  0  0  0  0  0  0  0  0  0  0  0
    1.7604   29.2572   -3.0789 H   0  0  0  0  0  0  0  0  0  0  0  0
    1.5623   29.1532   -2.3041 H   0  0  0  0  0  0  0  0  0  0  0  0
    0.4909   31.0559   -3.0219 H   0  0  0  0  0  0  0  0  0  0  0  0
   -0.4334   32.2359   -2.6891 H   0  0  0  0  0  0  0  0  0  0  0  0
   -0.7814   32.7436   -2.6946 H   0  0  0  0  0  0  0  0  0  0  0  0
   -1.5921   33.5496   -1.9303 H   0  0  0  0  0  0  0  0  0  0  0  0
   -2.3403   34.2641   -1.1641 H   0  0  0  0  0  0  0  0  0  0  0  0
   -3.2603   34.6684    0.7566 H   0  0  0  0  0  0  0  0  0  0  0  0
   -3.4711   34.3753    1.9924 H   0  0  0  0  0  0  0  0  0  0  0  0
   -3.6203   33.8897    3.4414 H   0  0  0  0  0  0  0  0  0  0  0  0
   -3.5633   33.4971    4.0808 H   0  0  0  0  0  0  0  0  0  0  0  0
   -3.2772   32.5974    5.0807 H   0  0  0  0  0  0  0  0  0  0  0  0
   -3.0289   32.0299    5.5081 H   0  0  0  0  0  0  0  0  0  0  0  0
   -2.3220   30.7618    6.0079 H   0  0  0  0  0  0  0  0  0  0  0  0
   -1.0779   29.0455    5.8244 H   0  0  0  0  0  0  0  0  0  0  0  0
    0.2730   27.5795    4.8040 H   0  0  0  0  0  0  0  0  0  0  0  0
    0.4676   27.2947    4.8090 H   0  0  0  0  0  0  0  0  0  0  0  0
    1.4255   26.8937    2.0783 H   0  0  0  0  0  0  0  0  0  0  0  0
    2.7865   25.1078    2.3778 H   0  0  0  0  0  0  0  0  0  0  0  0
    1.6268   25.4019    4.6872 H   0  0  0  0  0  0  0  0  0  0  0  0
    0.4991   28.0855    4.6847 H   0  0  0  0  0  0  0  0  0  0  0  0
    0.5848   26.7350    8.0085 H   0  0  0  0  0  0  0  0  0  0  0  0
    1.1103   25.6144    5.0463 H   0  0  0  0  0  0  0  0  0  0  0  0
    0.4753   26.5729    8.8774 H   0  0  0  0  0  0  0  0  0  0  0  0
    0.6055   26.9365    7.7454 H   0  0  0  0  0  0  0  0  0  0  0  0
    0.3854   24.7272   10.6441 H   0  0  0  0  0  0  0  0  0  0  0  0
    0.3981   25.9812    9.7807 H   0  0  0  0  0  0  0  0  0  0  0  0
    0.5875   22.3257   10.7213 H   0  0  0  0  0  0  0  0  0  0  0  0
    0.4460   23.6714   10.8751 H   0  0  0  0  0  0  0  0  0  0  0  0
    1.0040   20.4495    8.9797 H   0  0  0  0  0  0  0  0  0  0  0  0
    0.7543   21.4492   10.1006 H   0  0  0  0  0  0  0  0  0  0  0  0
    1.3894   20.4907    6.2696 H   0  0  0  0  0  0  0  0  0  0  0  0
    3.8783   20.2204    8.4624 H   0  0  0  0  0  0  0  0  0  0  0  0
    3.7733   17.8382    9.6575 H   0  0  0  0  0  0  0  0  0  0  0  0
   -0.2470   16.1435    9.7588 H   0  0  0  0  0  0  0  0  0  0  0  0
    2.7105   16.4076   10.1868 H   0  0  0  0  0  0  0  0  0  0  0  0
    1.2520   14.9410   10.6573 H   0  0  0  0  0  0  0  0  0  0  0  0
   -1.3500   17.3822    8.9192 H   0  0  0  0  0  0  0  0  0  0  0  0
   -1.3903   20.0513    7.5503 H   0  0  0  0  0  0  0  0  0  0  0  0
    1.4792   22.3364    4.5028 H   0  0  0  0  0  0  0  0  0  0  0  0
    1.4666   21.0824    5.3662 H   0  0  0  0  0  0  0  0  0  0  0  0
    1.2772   24.7380    4.4255 H   0  0  0  0  0  0  0  0  0  0  0  0
    1.4187   23.3922    4.2719 H   0  0  0  0  0  0  0  0  0  0  0  0
    0.4377   28.3046    8.0666 H   0  0  0  0  0  0  0  0  0  0  0  0
    1.0739   27.2679    4.2816 H   0  0  0  0  0  0  0  0  0  0  0  0
    1.0072   29.7286    3.2274 H   0  0  0  0  0  0  0  0  0  0  0  0
    0.6921   31.3718    4.4048 H   0  0  0  0  0  0  0  0  0  0  0  0
    0.3547   30.5156    7.2790 H   0  0  0  0  0  0  0  0  0  0  0  0
    2.2132   26.9178    0.3595 H   0  0  0  0  0  0  0  0  0  0  0  0
    2.0760   27.6319   -0.7031 H   0  0  0  0  0  0  0  0  0  0  0  0
    1.8106   28.5857   -1.8767 H   0  0  0  0  0  0  0  0  0  0  0  0
  1  2  2  0
  2  3  1  0
  3  4  1  0
  2  5  1  0
  5  6  1  0
  6  7  1  0
  7  8  1  0
  8  9  1  0
  9 10  2  0
 10 11  1  0
 11 12  1  0
 12 13  1  0
 13 14  1  0
 14 15  2  0
 14 16  1  0
 16 17  1  0
 17 18  1  0
 18 19  1  0
 18 20  1  0
 20 21  1  0
 21 22  1  0
 22 23  1  0
 23 24  1  0
 24 25  1  0
 25 26  1  0
 26 27  1  0
 27 28  1  0
 28 29  2  0
 29 30  1  0
 30 31  2  0
 31 32  1  0
 31 33  1  0
 33 34  2  0
 27 35  1  0
 35 36  1  0
 21 37  1  0
 37 38  1  0
 38 39  1  0
 39 40  1  0
 17 41  1  0
 41 42  1  0
 42 43  1  0
 43  6  1  0
 36 22  1  0
 40 37  1  0
 34 28  1  0
 40 38  1  0
  1 44  1  0
  1 45  1  0
  3 46  1  0
  3 47  1  0
  4 48  1  0
  5 49  1  0
  5 50  1  0
  6 51  1  0
  7 52  1  0
  7 53  1  0
  8 54  1  0
  8 55  1  0
  9 56  1  0
 10 57  1  0
 11 58  1  0
 11 59  1  0
 12 60  1  0
 12 61  1  0
 13 62  1  0
 13 63  1  0
 16 64  1  0
 16 65  1  0
 17 66  1  0
 18 67  1  0
 19 68  1  0
 20 69  1  0
 20 70  1  0
 21 71  1  0
 22 72  1  0
 23 73  1  0
 23 74  1  0
 24 75  1  0
 24 76  1  0
 25 77  1  0
 25 78  1  0
 26 79  1  0
 26 80  1  0
 27 81  1  0
 29 82  1  0
 30 83  1  0
 32 84  1  0
 32 85  1  0
 32 86  1  0
 33 87  1  0
 34 88  1  0
 35 89  1  0
 35 90  1  0
 36 91  1  0
 36 92  1  0
 37 93  1  0
 38 94  1  0
 39 95  1  0
 39 96  1  0
 40 97  1  0
 42 98  1  0
 43 99  1  0
 43100  1  0
M  END
