
     RDKit          2D

 79 83  0  0  0  0  0  0  0  0999 V2000
   17.5826  -23.9215  -16.6873 C   0  0  0  0  0  0  0  0  0  0  0  0
   16.6535  -23.0022  -15.9512 C   0  0  0  0  0  0  0  0  0  0  0  0
   16.9650  -23.3944  -14.5374 C   0  0  0  0  0  0  0  0  0  0  0  0
   15.9447  -22.3299  -14.8130 C   0  0  0  0  0  0  0  0  0  0  0  0
   15.0644  -21.3850  -15.5760 C   0  0  0  0  0  0  0  0  0  0  0  0
   14.5034  -20.8656  -14.2854 O   0  0  0  0  0  0  0  0  0  0  0  0
   14.1841  -20.4400  -16.3389 C   0  0  0  0  0  0  0  0  0  0  0  0
   13.7811  -20.0960  -14.9356 C   0  0  0  0  0  0  0  0  0  0  0  0
   13.7323  -20.1215  -13.4366 C   0  0  0  0  0  0  0  0  0  0  0  0
   13.6837  -20.1472  -11.9377 C   0  0  0  0  0  0  0  0  0  0  0  0
   13.6349  -20.1727  -10.4387 C   0  0  0  0  0  0  0  0  0  0  0  0
   13.5862  -20.1983   -8.9396 C   0  0  0  0  0  0  0  0  0  0  0  0
   14.6813  -21.2474  -10.4230 S   0  0  0  0  0  6  0  0  0  0  0  0
   13.9070  -20.5056   -9.3742 C   0  0  0  0  0  0  0  0  0  0  0  0
   14.7300  -21.2218  -11.9220 C   0  0  0  0  0  0  0  0  0  0  0  0
   15.4557  -21.9892  -11.4719 C   0  0  0  0  0  0  0  0  0  0  0  0
   16.5020  -23.0638  -11.4562 C   0  0  0  0  0  0  0  0  0  0  0  0
   17.2075  -23.8418  -10.3852 C   0  0  0  0  0  0  0  0  0  0  0  0
   17.1588  -23.8674   -8.8863 C   0  0  0  0  0  0  0  0  0  0  0  0
   17.3825  -24.1703   -7.4343 C   0  0  0  0  0  0  0  0  0  0  0  0
   16.3844  -23.1256   -7.8374 C   0  0  0  0  0  0  0  0  0  0  0  0
   15.3380  -22.0510   -7.8530 C   0  0  0  0  0  0  0  0  0  0  0  0
   14.6326  -21.2730   -8.9240 C   0  0  0  0  0  0  0  0  0  0  0  0
   12.7439  -19.0404  -14.6907 C   0  0  0  0  0  0  0  0  0  0  0  0
   12.1097  -18.3289  -15.8490 C   0  0  0  0  0  0  0  0  0  0  0  0
   12.5128  -18.6730  -17.2523 C   0  0  0  0  0  0  0  0  0  0  0  0
   12.9158  -19.0170  -18.6555 C   0  0  0  0  0  0  0  0  0  0  0  0
   13.5500  -19.7285  -17.4972 C   0  0  0  0  0  0  0  0  0  0  0  0
   14.3815  -20.5367  -18.4488 C   0  0  0  0  0  0  0  0  0  0  0  0
   18.5116  -24.8408  -17.4233 H   0  0  0  0  0  0  0  0  0  0  0  0
   16.6453  -23.9310  -17.8584 H   0  0  0  0  0  0  0  0  0  0  0  0
   18.6261  -24.0241  -15.6146 H   0  0  0  0  0  0  0  0  0  0  0  0
   16.1255  -22.3945  -17.2169 H   0  0  0  0  0  0  0  0  0  0  0  0
   16.9162  -23.4200  -13.0383 H   0  0  0  0  0  0  0  0  0  0  0  0
   18.0108  -24.4680  -14.6002 H   0  0  0  0  0  0  0  0  0  0  0  0
   15.6623  -22.1128  -13.3559 H   0  0  0  0  0  0  0  0  0  0  0  0
   15.5139  -21.7853  -16.9498 H   0  0  0  0  0  0  0  0  0  0  0  0
   13.4805  -19.8251  -13.9376 H   0  0  0  0  0  0  0  0  0  0  0  0
   14.9813  -21.2098  -17.3498 H   0  0  0  0  0  0  0  0  0  0  0  0
   14.7156  -21.0897  -14.3117 H   0  0  0  0  0  0  0  0  0  0  0  0
   14.7748  -21.1871  -13.6039 H   0  0  0  0  0  0  0  0  0  0  0  0
   12.6900  -19.0560  -13.2693 H   0  0  0  0  0  0  0  0  0  0  0  0
   14.6762  -21.1429  -12.4604 H   0  0  0  0  0  0  0  0  0  0  0  0
   12.6391  -19.0707  -11.9532 H   0  0  0  0  0  0  0  0  0  0  0  0
   12.6023  -19.1030  -10.6369 H   0  0  0  0  0  0  0  0  0  0  0  0
   13.4105  -20.0926   -7.4537 H   0  0  0  0  0  0  0  0  0  0  0  0
   12.5434  -19.1331   -8.7724 H   0  0  0  0  0  0  0  0  0  0  0  0
   12.5553  -19.1269   -9.1378 H   0  0  0  0  0  0  0  0  0  0  0  0
   14.0755  -20.5656  -11.6139 H   0  0  0  0  0  0  0  0  0  0  0  0
   13.1326  -19.7638   -8.3253 H   0  0  0  0  0  0  0  0  0  0  0  0
   13.1224  -19.3801   -9.9804 H   0  0  0  0  0  0  0  0  0  0  0  0
   14.2465  -21.2196   -8.0994 H   0  0  0  0  0  0  0  0  0  0  0  0
   14.9058  -21.3275  -13.4079 H   0  0  0  0  0  0  0  0  0  0  0  0
   13.7714  -20.2086  -12.4738 H   0  0  0  0  0  0  0  0  0  0  0  0
   15.7562  -22.2591  -12.2696 H   0  0  0  0  0  0  0  0  0  0  0  0
   15.7735  -22.2426  -12.9158 H   0  0  0  0  0  0  0  0  0  0  0  0
   14.8351  -21.2930  -12.6468 H   0  0  0  0  0  0  0  0  0  0  0  0
   17.3670  -23.9066  -12.3459 H   0  0  0  0  0  0  0  0  0  0  0  0
   16.4047  -22.8889  -12.9429 H   0  0  0  0  0  0  0  0  0  0  0  0
   18.2056  -24.8865   -9.9821 H   0  0  0  0  0  0  0  0  0  0  0  0
   17.8761  -24.4681  -11.5729 H   0  0  0  0  0  0  0  0  0  0  0  0
   18.2025  -24.9295   -9.0664 H   0  0  0  0  0  0  0  0  0  0  0  0
   18.4291  -25.2386   -7.5493 H   0  0  0  0  0  0  0  0  0  0  0  0
   17.2428  -24.1021   -5.9424 H   0  0  0  0  0  0  0  0  0  0  0  0
   16.1995  -23.0107   -6.3532 H   0  0  0  0  0  0  0  0  0  0  0  0
   14.4730  -21.2081   -6.9634 H   0  0  0  0  0  0  0  0  0  0  0  0
   15.5618  -22.3539   -6.4010 H   0  0  0  0  0  0  0  0  0  0  0  0
   13.6021  -20.2316   -8.6019 H   0  0  0  0  0  0  0  0  0  0  0  0
   14.0672  -20.7578   -7.6337 H   0  0  0  0  0  0  0  0  0  0  0  0
   11.8149  -18.1211  -13.9547 H   0  0  0  0  0  0  0  0  0  0  0  0
   12.9313  -19.3074  -13.2266 H   0  0  0  0  0  0  0  0  0  0  0  0
   11.2295  -17.3839  -16.6120 H   0  0  0  0  0  0  0  0  0  0  0  0
   11.4009  -17.6566  -14.7107 H   0  0  0  0  0  0  0  0  0  0  0  0
   11.5478  -17.6528  -17.7795 H   0  0  0  0  0  0  0  0  0  0  0  0
   12.0356  -18.0721  -19.4185 H   0  0  0  0  0  0  0  0  0  0  0  0
   13.5256  -19.5818  -19.9042 H   0  0  0  0  0  0  0  0  0  0  0  0
   15.2130  -21.3447  -19.4005 H   0  0  0  0  0  0  0  0  0  0  0  0
   13.8571  -19.9254  -19.7143 H   0  0  0  0  0  0  0  0  0  0  0  0
   15.1087  -21.3449  -17.4153 H   0  0  0  0  0  0  0  0  0  0  0  0
  1  2  1  0
  2  3  1  0
  3  4  1  0
  4  5  1  0
  5  6  1  0
  5  7  1  0
  7  8  1  0
  8  9  1  0
  9 10  1  0
 10 11  1  0
 11 12  1  0
 11 13  1  0
 13 14  1  0
 13 15  1  0
 13 16  1  0
 16 17  1  0
 17 18  1  0
 18 19  1  0
 19 20  1  0
 20 21  1  0
 21 22  1  0
 22 23  1  0
  8 24  1  0
 24 25  1  0
 25 26  1  0
 26 27  1  0
 27 28  1  0
 28 29  1  0
  4  2  1  0
 28  7  1  0
 23 13  1  0
 28 26  1  0
 21 19  1  0
  1 30  1  0
  1 31  1  0
  1 32  1  0
  2 33  1  0
  3 34  1  0
  3 35  1  0
  4 36  1  0
  5 37  1  0
  6 38  1  0
  7 39  1  0
  8 40  1  0
  9 41  1  0
  9 42  1  0
 10 43  1  0
 10 44  1  0
 11 45  1  0
 12 46  1  0
 12 47  1  0
 12 48  1  0
 13 49  1  0
 14 50  1  0
 14 51  1  0
 14 52  1  0
 15 53  1  0
 15 54  1  0
 15 55  1  0
 16 56  1  0
 16 57  1  0
 17 58  1  0
 17 59  1  0
 18 60  1  0
 18 61  1  0
 19 62  1  0
 20 63  1  0
 20 64  1  0
 21 65  1  0
 22 66  1  0
 22 67  1  0
 23 68  1  0
 23 69  1  0
 24 70  1  0
 24 71  1  0
 25 72  1  0
 25 73  1  0
 26 74  1  0
 27 75  1  0
 27 76  1  0
 29 77  1  0
 29 78  1  0
 29 79  1  0
M  END
