
     RDKit          2D

 99105  0  0  0  0  0  0  0  0999 V2000
    6.4100   26.9119    1.3636 C   0  0  0  0  0  0  0  0  0  0  0  0
    5.5981   25.9602    2.1912 C   0  0  0  0  0  0  0  0  0  0  0  0
    4.1233   26.1792    2.3556 C   0  0  0  0  0  0  0  0  0  0  0  0
    2.6485   26.3983    2.5199 O   0  0  0  0  0  0  0  0  0  0  0  0
    1.9857   27.5691    1.8567 C   0  0  0  0  0  0  0  0  0  0  0  0
    3.3059   27.9921    1.2840 C   0  0  0  0  0  0  0  0  0  0  0  0
    0.6654   27.1460    2.4294 C   0  0  0  0  0  0  0  0  0  0  0  0
   -0.6548   26.7230    3.0022 C   0  0  0  0  0  0  0  0  0  0  0  0
   -1.8084   26.0658    3.7001 C   0  0  0  0  0  0  0  0  0  0  0  0
   -3.0424   26.8685    3.4126 C   0  0  0  0  0  0  0  0  0  0  0  0
   -3.7210   25.8378    4.2655 C   0  0  0  0  0  0  0  0  0  0  0  0
   -4.3996   24.8072    5.1183 N   0  0  0  0  0  0  0  0  0  0  0  0
   -5.8752   24.8971    5.3720 C   0  0  0  0  0  0  0  0  0  0  0  0
   -7.3508   24.9871    5.6257 C   0  0  0  0  0  0  0  0  0  0  0  0
   -2.6516   28.0220    2.5369 C   0  0  0  0  0  0  0  0  0  0  0  0
   -1.1759   27.9320    2.2832 O   0  0  0  0  0  0  0  0  0  0  0  0
    1.3279   25.9742    3.0911 C   0  0  0  0  0  0  0  0  0  0  0  0
    2.2505   24.9159    3.6193 C   0  0  0  0  0  0  0  0  0  0  0  0
    1.4384   23.9637    4.4461 C   0  0  0  0  0  0  0  0  0  0  0  0
    0.0805   23.2214    5.2458 C   0  0  0  0  0  0  0  0  0  0  0  0
   -1.2033   22.7377    5.8524 C   0  0  0  0  0  0  0  0  0  0  0  0
   -2.2949   23.6801    5.4398 C   0  0  0  0  0  0  0  0  0  0  0  0
   -3.1705   22.7712    6.2506 C   0  0  0  0  0  0  0  0  0  0  0  0
   -4.6386   23.0546    6.3705 C   0  0  0  0  0  0  0  0  0  0  0  0
   -2.5779   21.5787    6.9414 C   0  0  0  0  0  0  0  0  0  0  0  0
   -1.9854   20.3864    7.6321 C   0  0  0  0  0  0  0  0  0  0  0  0
   -1.6859   24.7462    4.5784 C   0  0  0  0  0  0  0  0  0  0  0  0
   -1.5224   25.9595    3.7114 C   0  0  0  0  0  0  0  0  0  0  0  0
   -1.3590   27.1726    2.8446 C   0  0  0  0  0  0  0  0  0  0  0  0
   -0.0543   25.6760    3.5915 C   0  0  0  0  0  0  0  0  0  0  0  0
   -0.2177   24.4628    4.4584 C   0  0  0  0  0  0  0  0  0  0  0  0
   -0.8103   25.6552    3.7677 C   0  0  0  0  0  0  0  0  0  0  0  0
    0.4194   26.2178    3.1186 N   0  0  0  0  0  0  0  0  0  0  0  0
    0.3255   27.4618    2.2857 C   0  0  0  0  0  0  0  0  0  0  0  0
    0.2314   28.7058    1.4528 C   0  0  0  0  0  0  0  0  0  0  0  0
    0.1374   29.9498    0.6199 O   0  0  0  0  0  0  0  0  0  0  0  0
   -1.1862   30.6311    0.4361 C   0  0  0  0  0  0  0  0  0  0  0  0
    6.2609   24.7894    2.8545 C   0  0  0  0  0  0  0  0  0  0  0  0
    6.4323   23.5446    3.6735 C   0  0  0  0  0  0  0  0  0  0  0  0
    5.0759   24.1695    3.5336 C   0  0  0  0  0  0  0  0  0  0  0  0
    4.2639   23.2177    4.3612 N   0  0  0  0  0  0  0  0  0  0  0  0
    4.9267   22.0469    5.0245 O   0  0  0  0  0  0  0  0  0  0  0  0
    7.8848   26.6929    1.1992 H   0  0  0  0  0  0  0  0  0  0  0  0
    5.7472   28.0827    0.7003 H   0  0  0  0  0  0  0  0  0  0  0  0
    4.3604   27.2728    1.3567 H   0  0  0  0  0  0  0  0  0  0  0  0
    3.8863   25.0856    3.3545 H   0  0  0  0  0  0  0  0  0  0  0  0
    1.4887   28.7827    1.1286 H   0  0  0  0  0  0  0  0  0  0  0  0
    4.6262   28.4151    0.7112 H   0  0  0  0  0  0  0  0  0  0  0  0
    2.6430   29.1626    0.6203 H   0  0  0  0  0  0  0  0  0  0  0  0
    4.3981   27.0510    1.6983 H   0  0  0  0  0  0  0  0  0  0  0  0
    0.3421   28.3854    1.6488 H   0  0  0  0  0  0  0  0  0  0  0  0
    0.1423   25.6025    3.6013 H   0  0  0  0  0  0  0  0  0  0  0  0
   -0.5467   25.2968    3.9585 H   0  0  0  0  0  0  0  0  0  0  0  0
   -2.5987   25.0999    4.5323 H   0  0  0  0  0  0  0  0  0  0  0  0
   -4.4184   27.4558    3.3034 H   0  0  0  0  0  0  0  0  0  0  0  0
   -5.0343   26.5332    4.0609 H   0  0  0  0  0  0  0  0  0  0  0  0
   -2.5003   25.0221    4.5724 H   0  0  0  0  0  0  0  0  0  0  0  0
   -3.6025   23.6867    5.7175 H   0  0  0  0  0  0  0  0  0  0  0  0
   -5.9439   26.1384    4.5326 H   0  0  0  0  0  0  0  0  0  0  0  0
   -5.8066   23.6559    6.2114 H   0  0  0  0  0  0  0  0  0  0  0  0
   -8.8265   25.0770    5.8794 H   0  0  0  0  0  0  0  0  0  0  0  0
   -7.4194   26.2289    4.7871 H   0  0  0  0  0  0  0  0  0  0  0  0
   -7.2824   23.7453    6.4642 H   0  0  0  0  0  0  0  0  0  0  0  0
   -4.1092   28.3681    2.6108 H   0  0  0  0  0  0  0  0  0  0  0  0
   -2.7458   29.2653    1.7032 H   0  0  0  0  0  0  0  0  0  0  0  0
    2.7276   26.2299    2.6161 H   0  0  0  0  0  0  0  0  0  0  0  0
    3.3014   25.6804    2.8702 H   0  0  0  0  0  0  0  0  0  0  0  0
    3.3927   24.0175    3.9909 H   0  0  0  0  0  0  0  0  0  0  0  0
    2.6578   23.1438    4.7473 H   0  0  0  0  0  0  0  0  0  0  0  0
    0.9006   22.8652    5.3145 H   0  0  0  0  0  0  0  0  0  0  0  0
   -0.3423   21.6464    6.4164 H   0  0  0  0  0  0  0  0  0  0  0  0
   -2.0367   21.7995    6.6741 H   0  0  0  0  0  0  0  0  0  0  0  0
   -3.5696   24.4325    5.1968 H   0  0  0  0  0  0  0  0  0  0  0  0
   -5.5141   22.1457    7.1812 H   0  0  0  0  0  0  0  0  0  0  0  0
   -5.2310   24.2470    5.6797 H   0  0  0  0  0  0  0  0  0  0  0  0
   -3.9311   21.2176    7.4785 H   0  0  0  0  0  0  0  0  0  0  0  0
   -1.2249   21.9400    6.4042 H   0  0  0  0  0  0  0  0  0  0  0  0
   -1.3930   19.1940    8.3229 H   0  0  0  0  0  0  0  0  0  0  0  0
   -3.2810   20.1606    8.3536 H   0  0  0  0  0  0  0  0  0  0  0  0
   -0.6898   20.6122    6.9106 H   0  0  0  0  0  0  0  0  0  0  0  0
   -2.9864   25.9409    4.0376 H   0  0  0  0  0  0  0  0  0  0  0  0
   -1.7325   28.4070    2.0785 H   0  0  0  0  0  0  0  0  0  0  0  0
   -2.8269   27.4566    2.9652 H   0  0  0  0  0  0  0  0  0  0  0  0
   -0.1589   27.7736    2.1748 H   0  0  0  0  0  0  0  0  0  0  0  0
   -2.0582   26.4417    3.4955 H   0  0  0  0  0  0  0  0  0  0  0  0
    1.8624   25.8092    3.0899 H   0  0  0  0  0  0  0  0  0  0  0  0
   -1.0207   28.1050    2.1298 H   0  0  0  0  0  0  0  0  0  0  0  0
    1.7335   27.6979    1.8257 H   0  0  0  0  0  0  0  0  0  0  0  0
   -1.2414   28.9309    1.6260 H   0  0  0  0  0  0  0  0  0  0  0  0
    1.6814   28.7840    1.0765 H   0  0  0  0  0  0  0  0  0  0  0  0
   -2.5099   31.3124    0.2523 H   0  0  0  0  0  0  0  0  0  0  0  0
   -0.5318   31.6701   -0.4254 H   0  0  0  0  0  0  0  0  0  0  0  0
   -1.9971   29.6829    1.2688 H   0  0  0  0  0  0  0  0  0  0  0  0
    7.6762   25.0027    2.4056 H   0  0  0  0  0  0  0  0  0  0  0  0
    7.9070   23.3255    3.5092 H   0  0  0  0  0  0  0  0  0  0  0  0
    6.0914   22.3757    4.5498 H   0  0  0  0  0  0  0  0  0  0  0  0
    3.8858   25.0206    3.2027 H   0  0  0  0  0  0  0  0  0  0  0  0
    2.7897   23.2858    4.6293 H   0  0  0  0  0  0  0  0  0  0  0  0
    4.1148   21.0952    5.8521 H   0  0  0  0  0  0  0  0  0  0  0  0
  1  2  2  3
  2  3  1  0
  3  4  1  0
  4  5  1  0
  5  6  1  0
  5  7  1  0
  7  8  1  0
  8  9  1  0
  9 10  1  0
 10 11  1  0
 11 12  1  0
 12 13  1  0
 13 14  1  0
 10 15  1  0
 15 16  1  0
  7 17  1  0
 17 18  1  0
 18 19  1  0
 19 20  1  0
 20 21  1  0
 21 22  1  0
 22 23  1  0
 23 24  2  3
 23 25  1  0
 25 26  1  0
 22 27  1  0
 27 28  1  0
 28 29  1  0
 28 30  1  0
 30 31  1  0
 31 32  1  0
 32 33  1  0
 33 34  1  0
 34 35  1  0
 35 36  1  0
 36 37  1  0
  2 38  1  0
 38 39  1  0
 39 40  1  0
 40 41  1  0
 41 42  1  0
 16  8  1  0
 30 17  1  0
 40 38  1  0
 30 20  1  0
 31 20  1  0
 31 27  1  0
 32 27  1  0
  1 43  1  0
  1 44  1  0
  3 45  1  0
  3 46  1  0
  5 47  1  0
  6 48  1  0
  6 49  1  0
  6 50  1  0
  7 51  1  0
  8 52  1  0
  9 53  1  0
  9 54  1  0
 10 55  1  0
 11 56  1  0
 11 57  1  0
 12 58  1  0
 13 59  1  0
 13 60  1  0
 14 61  1  0
 14 62  1  0
 14 63  1  0
 15 64  1  0
 15 65  1  0
 17 66  1  0
 18 67  1  0
 18 68  1  0
 19 69  1  0
 19 70  1  0
 21 71  1  0
 21 72  1  0
 22 73  1  0
 24 74  1  0
 24 75  1  0
 25 76  1  0
 25 77  1  0
 26 78  1  0
 26 79  1  0
 26 80  1  0
 28 81  1  0
 29 82  1  0
 29 83  1  0
 29 84  1  0
 32 85  1  0
 33 86  1  0
 34 87  1  0
 34 88  1  0
 35 89  1  0
 35 90  1  0
 37 91  1  0
 37 92  1  0
 37 93  1  0
 38 94  1  0
 39 95  1  0
 39 96  1  0
 40 97  1  0
 41 98  1  0
 42 99  1  0
M  END
