
     RDKit          2D

 33 36  0  0  0  0  0  0  0  0999 V2000
   -0.5051   23.5558    3.0515 C   0  0  0  0  0  0  0  0  0  0  0  0
   -0.8962   24.0417    4.4157 C   0  0  0  0  0  0  0  0  0  0  0  0
    0.1816   23.4011    5.2392 C   0  0  0  0  0  0  0  0  0  0  0  0
    0.9705   22.7107    4.3887 F   0  0  0  0  0  0  0  0  0  0  0  0
    0.9935   23.0066    6.4372 C   0  0  0  0  0  0  0  0  0  0  0  0
   -0.2095   23.8870    6.6034 C   0  0  0  0  0  0  0  0  0  0  0  0
   -0.1791   24.0918    8.0890 C   0  0  0  0  0  0  0  0  0  0  0  0
   -0.5701   24.5778    9.4532 C   0  0  0  0  0  0  0  0  0  0  0  0
   -1.3820   24.9723    8.2552 C   0  0  0  0  0  0  0  0  0  0  0  0
   -2.4294   25.8177    8.9174 C   0  0  0  0  0  0  0  0  0  0  0  0
   -3.6323   26.6981    9.0836 C   0  0  0  0  0  0  0  0  0  0  0  0
   -3.2413   26.2122    7.7195 C   0  0  0  0  0  0  0  0  0  0  0  0
   -2.1097   24.8510    4.0660 C   0  0  0  0  0  0  0  0  0  0  0  0
   -1.6616   24.7501    5.4939 C   0  0  0  0  0  0  0  0  0  0  0  0
   -0.1141   23.0698    1.6874 H   0  0  0  0  0  0  0  0  0  0  0  0
    0.7458   23.1606    3.3700 H   0  0  0  0  0  0  0  0  0  0  0  0
   -1.6704   23.8444    2.4338 H   0  0  0  0  0  0  0  0  0  0  0  0
    2.0408   22.1612    5.7750 H   0  0  0  0  0  0  0  0  0  0  0  0
    1.5776   22.7996    7.8032 H   0  0  0  0  0  0  0  0  0  0  0  0
   -0.8544   24.3171    6.4175 H   0  0  0  0  0  0  0  0  0  0  0  0
    1.0031   23.3313    8.6126 H   0  0  0  0  0  0  0  0  0  0  0  0
    0.5076   23.9372   10.2767 H   0  0  0  0  0  0  0  0  0  0  0  0
   -1.2128   25.2168   10.6484 H   0  0  0  0  0  0  0  0  0  0  0  0
   -1.7855   25.0632    6.9702 H   0  0  0  0  0  0  0  0  0  0  0  0
   -2.1238   25.8243   10.3859 H   0  0  0  0  0  0  0  0  0  0  0  0
   -3.6019   26.9030   10.5692 H   0  0  0  0  0  0  0  0  0  0  0  0
   -4.8460   27.5075    8.7339 H   0  0  0  0  0  0  0  0  0  0  0  0
   -4.3191   26.8528    6.8959 H   0  0  0  0  0  0  0  0  0  0  0  0
   -2.8692   25.8039    6.7758 H   0  0  0  0  0  0  0  0  0  0  0  0
   -2.2715   24.7622    2.7287 H   0  0  0  0  0  0  0  0  0  0  0  0
   -3.3127   25.7315    4.2322 H   0  0  0  0  0  0  0  0  0  0  0  0
   -2.4762   25.3841    5.8545 H   0  0  0  0  0  0  0  0  0  0  0  0
   -1.2519   24.5756    6.2596 H   0  0  0  0  0  0  0  0  0  0  0  0
  1  2  1  0
  2  3  1  0
  3  4  1  0
  3  5  1  0
  5  6  1  0
  6  7  1  0
  7  8  1  0
  8  9  1  0
  9 10  1  0
 10 11  1  0
 11 12  1  0
  2 13  1  0
 13 14  1  0
 14  2  1  0
  6  3  1  0
  9  7  1  0
 12 10  1  0
  1 15  1  0
  1 16  1  0
  1 17  1  0
  5 18  1  0
  5 19  1  0
  6 20  1  0
  7 21  1  0
  8 22  1  0
  8 23  1  0
  9 24  1  0
 10 25  1  0
 11 26  1  0
 11 27  1  0
 12 28  1  0
 12 29  1  0
 13 30  1  0
 13 31  1  0
 14 32  1  0
 14 33  1  0
M  END
