
     RDKit          2D

  7  6  0  0  0  0  0  0  0  0999 V2000
   16.8048  -18.1702  -11.2044 O   0  0  0  0  0  0  0  0  0  0  0  0
   15.9393  -18.5041  -12.3830 P   0  0  0  0  0  0  0  0  0  0  0  0
   14.9363  -19.6153  -12.2862 O   0  0  0  0  0  0  0  0  0  0  0  0
   16.0767  -17.7269  -13.6586 O   0  0  0  0  0  0  0  0  0  0  0  0
   17.8078  -17.0591  -11.3013 H   0  0  0  0  0  0  0  0  0  0  0  0
   14.0707  -19.9492  -13.4648 H   0  0  0  0  0  0  0  0  0  0  0  0
   15.2110  -18.0609  -14.8373 H   0  0  0  0  0  0  0  0  0  0  0  0
  1  2  1  0
  2  3  1  0
  2  4  1  0
  1  5  1  0
  3  6  1  0
  4  7  1  0
M  END
