
     RDKit          2D

 48 53  0  0  0  0  0  0  0  0999 V2000
   -3.8908   23.5547    3.0665 C   0  0  0  0  0  0  0  0  0  0  0  0
   -2.8495   24.5819    3.3986 C   0  0  0  0  0  0  0  0  0  0  0  0
   -1.8081   25.6093    3.7306 C   0  0  0  0  0  0  0  0  0  0  0  0
   -1.2904   24.5543    4.6628 C   0  0  0  0  0  0  0  0  0  0  0  0
   -1.0131   23.3306    5.4848 C   0  0  0  0  0  0  0  0  0  0  0  0
   -0.7357   22.1069    6.3069 C   0  0  0  0  0  0  0  0  0  0  0  0
   -1.9512   21.6474    5.5575 C   0  0  0  0  0  0  0  0  0  0  0  0
   -2.5006   20.2714    5.7914 C   0  0  0  0  0  0  0  0  0  0  0  0
   -1.8346   19.3549    6.7745 C   0  0  0  0  0  0  0  0  0  0  0  0
   -0.6191   19.8145    7.5237 C   0  0  0  0  0  0  0  0  0  0  0  0
   -0.0697   21.1905    7.2899 C   0  0  0  0  0  0  0  0  0  0  0  0
   -0.0829   25.1052    5.3615 C   0  0  0  0  0  0  0  0  0  0  0  0
    1.0667   25.9119    5.8884 C   0  0  0  0  0  0  0  0  0  0  0  0
    0.2774   27.4298    4.5116 C   0  0  0  0  0  0  0  0  0  0  0  0
   -0.9206   26.8122    3.8532 C   0  0  0  0  0  0  0  0  0  0  0  0
   -1.0725   28.1005    3.1001 C   0  0  0  0  0  0  0  0  0  0  0  0
   -1.6283   29.1227    2.1534 C   0  0  0  0  0  0  0  0  0  0  0  0
   -2.8439   28.8038    1.3345 C   0  0  0  0  0  0  0  0  0  0  0  0
   -2.2882   27.7816    2.2811 C   0  0  0  0  0  0  0  0  0  0  0  0
    0.1457   26.5007    4.8612 C   0  0  0  0  0  0  0  0  0  0  0  0
   -4.9322   22.5273    2.7345 H   0  0  0  0  0  0  0  0  0  0  0  0
   -3.2612   22.6021    4.0392 H   0  0  0  0  0  0  0  0  0  0  0  0
   -4.5204   24.5072    2.0938 H   0  0  0  0  0  0  0  0  0  0  0  0
   -3.4794   25.5347    2.4262 H   0  0  0  0  0  0  0  0  0  0  0  0
   -2.5847   24.0129    3.8899 H   0  0  0  0  0  0  0  0  0  0  0  0
   -2.6562   26.3066    2.7086 H   0  0  0  0  0  0  0  0  0  0  0  0
   -1.8709   24.0545    4.4419 H   0  0  0  0  0  0  0  0  0  0  0  0
   -2.2229   22.8022    4.7727 H   0  0  0  0  0  0  0  0  0  0  0  0
    0.1968   23.8591    6.1969 H   0  0  0  0  0  0  0  0  0  0  0  0
    0.3834   22.9915    6.7706 H   0  0  0  0  0  0  0  0  0  0  0  0
   -3.1164   21.6682    4.6132 H   0  0  0  0  0  0  0  0  0  0  0  0
   -1.9548   22.9932    4.8951 H   0  0  0  0  0  0  0  0  0  0  0  0
   -3.7161   19.8118    5.0421 H   0  0  0  0  0  0  0  0  0  0  0  0
   -2.3840   17.9789    7.0083 H   0  0  0  0  0  0  0  0  0  0  0  0
    0.5461   19.7936    8.4681 H   0  0  0  0  0  0  0  0  0  0  0  0
   -0.7639   18.4312    8.0856 H   0  0  0  0  0  0  0  0  0  0  0  0
    0.8181   22.3933    7.4122 H   0  0  0  0  0  0  0  0  0  0  0  0
    0.9048   20.6918    8.3155 H   0  0  0  0  0  0  0  0  0  0  0  0
    0.3368   23.9739    6.2525 H   0  0  0  0  0  0  0  0  0  0  0  0
    2.2621   26.0378    6.7857 H   0  0  0  0  0  0  0  0  0  0  0  0
    0.2101   28.7534    3.8091 H   0  0  0  0  0  0  0  0  0  0  0  0
    1.4402   28.1962    5.0690 H   0  0  0  0  0  0  0  0  0  0  0  0
    0.0378   29.0040    3.5482 H   0  0  0  0  0  0  0  0  0  0  0  0
   -0.9686   30.4638    2.0256 H   0  0  0  0  0  0  0  0  0  0  0  0
   -2.9959   30.0921    0.5814 H   0  0  0  0  0  0  0  0  0  0  0  0
   -4.0068   28.0376    0.7771 H   0  0  0  0  0  0  0  0  0  0  0  0
   -3.0676   26.5001    2.2837 H   0  0  0  0  0  0  0  0  0  0  0  0
    0.7138   27.8721    4.6450 H   0  0  0  0  0  0  0  0  0  0  0  0
  1  2  1  0
  2  3  1  0
  3  4  1  0
  4  5  1  0
  5  6  1  0
  6  7  1  0
  7  8  1  0
  8  9  2  0
  9 10  1  0
 10 11  1  0
  4 12  1  0
 12 13  1  0
 13 14  1  0
 14 15  1  0
 15 16  1  0
 16 17  1  0
 17 18  1  0
 18 19  1  0
 15 20  1  0
 15  3  1  0
 19 16  1  0
 11  6  1  0
 20 12  1  0
 20 13  1  0
 19 17  1  0
  1 21  1  0
  1 22  1  0
  1 23  1  0
  2 24  1  0
  2 25  1  0
  3 26  1  0
  4 27  1  0
  5 28  1  0
  5 29  1  0
  6 30  1  0
  7 31  1  0
  7 32  1  0
  8 33  1  0
  9 34  1  0
 10 35  1  0
 10 36  1  0
 11 37  1  0
 11 38  1  0
 12 39  1  0
 13 40  1  0
 14 41  1  0
 14 42  1  0
 16 43  1  0
 17 44  1  0
 18 45  1  0
 18 46  1  0
 19 47  1  0
 20 48  1  0
M  END
