
     RDKit          2D

 81 86  0  0  0  0  0  0  0  0999 V2000
   27.8146  -19.5847   -4.9220 C   0  0  0  0  0  0  0  0  0  0  0  0
   26.3587  -19.9310   -4.8216 C   0  0  0  0  0  0  0  0  0  0  0  0
   24.9027  -20.2774   -4.7211 C   0  0  0  0  0  0  0  0  0  0  0  0
   25.5729  -21.4721   -4.1099 C   0  0  0  0  0  0  0  0  0  0  0  0
   24.9428  -22.7079   -3.5391 C   0  0  0  0  0  0  0  0  0  0  0  0
   23.4868  -23.0543   -3.4387 C   0  0  0  0  0  0  0  0  0  0  0  0
   22.1464  -23.6823   -3.1961 C   0  0  0  0  0  0  0  0  0  0  0  0
   20.8957  -22.9617   -3.6042 C   0  0  0  0  0  0  0  0  0  0  0  0
   20.9855  -21.6131   -4.2548 C   0  0  0  0  0  0  0  0  0  0  0  0
   20.5581  -20.3276   -4.8989 C   0  0  0  0  0  0  0  0  0  0  0  0
   20.1308  -19.0421   -5.5430 C   0  0  0  0  0  0  0  0  0  0  0  0
   19.7035  -17.7566   -6.1870 C   0  0  0  0  0  0  0  0  0  0  0  0
   18.6943  -19.4521   -5.4081 C   0  0  0  0  0  0  0  0  0  0  0  0
   17.2576  -19.8621   -5.2733 C   0  0  0  0  0  0  0  0  0  0  0  0
   16.8305  -18.5781   -5.9207 C   0  0  0  0  0  0  0  0  0  0  0  0
   15.3940  -18.9881   -5.7858 C   0  0  0  0  0  0  0  0  0  0  0  0
   13.9573  -19.3981   -5.6510 C   0  0  0  0  0  0  0  0  0  0  0  0
   14.3845  -20.6820   -5.0037 C   0  0  0  0  0  0  0  0  0  0  0  0
   14.8117  -21.9659   -4.3563 C   0  0  0  0  0  0  0  0  0  0  0  0
   14.7218  -23.3127   -3.7019 C   0  0  0  0  0  0  0  0  0  0  0  0
   13.4711  -22.5928   -4.1113 C   0  0  0  0  0  0  0  0  0  0  0  0
   12.4407  -23.5898   -3.6711 C   0  0  0  0  0  0  0  0  0  0  0  0
   13.3333  -24.6561   -3.1088 N   0  0  0  0  0  0  0  0  0  0  0  0
   11.1001  -24.2166   -3.4262 N   0  0  0  0  0  0  0  0  0  0  0  0
   11.1900  -22.8699   -4.0805 C   0  0  0  0  0  0  0  0  0  0  0  0
   11.6141  -21.5698   -4.6967 Cl  0  0  0  0  0  0  0  0  0  0  0  0
    9.7323  -22.5832   -4.2876 C   0  0  0  0  0  0  0  0  0  0  0  0
    8.2746  -22.2963   -4.4948 C   0  0  0  0  0  0  0  0  0  0  0  0
   15.8211  -20.2720   -5.1385 C   0  0  0  0  0  0  0  0  0  0  0  0
   22.3259  -20.9851   -4.4974 C   0  0  0  0  0  0  0  0  0  0  0  0
   23.4368  -20.0236   -4.9126 C   0  0  0  0  0  0  0  0  0  0  0  0
   23.5766  -21.7057   -4.0893 C   0  0  0  0  0  0  0  0  0  0  0  0
   29.2706  -19.2382   -5.0225 H   0  0  0  0  0  0  0  0  0  0  0  0
   28.1700  -20.8899   -4.2740 H   0  0  0  0  0  0  0  0  0  0  0  0
   27.4594  -18.2793   -5.5701 H   0  0  0  0  0  0  0  0  0  0  0  0
   26.0036  -18.6279   -5.4742 H   0  0  0  0  0  0  0  0  0  0  0  0
   26.6402  -20.5959   -4.4839 H   0  0  0  0  0  0  0  0  0  0  0  0
   25.0632  -18.9329   -5.3665 H   0  0  0  0  0  0  0  0  0  0  0  0
   26.8613  -22.1378   -3.7267 H   0  0  0  0  0  0  0  0  0  0  0  0
   26.2452  -21.0753   -4.2713 H   0  0  0  0  0  0  0  0  0  0  0  0
   25.1476  -24.0409   -2.8824 H   0  0  0  0  0  0  0  0  0  0  0  0
   26.3598  -23.1214   -3.2724 H   0  0  0  0  0  0  0  0  0  0  0  0
   24.6276  -23.9086   -2.9708 H   0  0  0  0  0  0  0  0  0  0  0  0
   21.1160  -24.6810   -2.7591 H   0  0  0  0  0  0  0  0  0  0  0  0
   23.0393  -24.7497   -2.6362 H   0  0  0  0  0  0  0  0  0  0  0  0
   19.4381  -22.6748   -3.8113 H   0  0  0  0  0  0  0  0  0  0  0  0
   20.2997  -24.2106   -3.0255 H   0  0  0  0  0  0  0  0  0  0  0  0
   19.4966  -21.7947   -4.2359 H   0  0  0  0  0  0  0  0  0  0  0  0
   19.1844  -20.8922   -4.6884 H   0  0  0  0  0  0  0  0  0  0  0  0
   21.8485  -19.6178   -5.1837 H   0  0  0  0  0  0  0  0  0  0  0  0
   21.5673  -18.6321   -5.6778 H   0  0  0  0  0  0  0  0  0  0  0  0
   19.2761  -16.4710   -6.8311 H   0  0  0  0  0  0  0  0  0  0  0  0
   18.2256  -18.0074   -6.1329 H   0  0  0  0  0  0  0  0  0  0  0  0
   21.1400  -17.3460   -6.3207 H   0  0  0  0  0  0  0  0  0  0  0  0
   18.0948  -18.2251   -6.0287 H   0  0  0  0  0  0  0  0  0  0  0  0
   18.9433  -20.7790   -4.7547 H   0  0  0  0  0  0  0  0  0  0  0  0
   17.6849  -21.1459   -4.6259 H   0  0  0  0  0  0  0  0  0  0  0  0
   16.4034  -17.2942   -6.5680 H   0  0  0  0  0  0  0  0  0  0  0  0
   15.3332  -18.6653   -5.9465 H   0  0  0  0  0  0  0  0  0  0  0  0
   14.9667  -17.7042   -6.4332 H   0  0  0  0  0  0  0  0  0  0  0  0
   12.5208  -19.8081   -5.5162 H   0  0  0  0  0  0  0  0  0  0  0  0
   13.5302  -18.1142   -6.2984 H   0  0  0  0  0  0  0  0  0  0  0  0
   12.9066  -20.9324   -4.9488 H   0  0  0  0  0  0  0  0  0  0  0  0
   16.3104  -21.9491   -4.2957 H   0  0  0  0  0  0  0  0  0  0  0  0
   16.1795  -23.5995   -3.4948 H   0  0  0  0  0  0  0  0  0  0  0  0
   14.6581  -24.6602   -3.0460 H   0  0  0  0  0  0  0  0  0  0  0  0
   12.5784  -21.5265   -4.6736 H   0  0  0  0  0  0  0  0  0  0  0  0
   13.7263  -24.6192   -1.6616 H   0  0  0  0  0  0  0  0  0  0  0  0
   13.9199  -25.8236   -3.8457 H   0  0  0  0  0  0  0  0  0  0  0  0
   10.2742  -25.3561   -2.9069 H   0  0  0  0  0  0  0  0  0  0  0  0
   10.0806  -21.2659   -4.9148 H   0  0  0  0  0  0  0  0  0  0  0  0
    9.3840  -23.9005   -3.6604 H   0  0  0  0  0  0  0  0  0  0  0  0
    6.8170  -22.0095   -4.7019 H   0  0  0  0  0  0  0  0  0  0  0  0
    8.5286  -22.0596   -5.9540 H   0  0  0  0  0  0  0  0  0  0  0  0
    8.0207  -22.5331   -3.0355 H   0  0  0  0  0  0  0  0  0  0  0  0
   16.4202  -21.4964   -4.5124 H   0  0  0  0  0  0  0  0  0  0  0  0
   22.4157  -19.6366   -5.1480 H   0  0  0  0  0  0  0  0  0  0  0  0
   23.8964  -18.7309   -5.5189 H   0  0  0  0  0  0  0  0  0  0  0  0
   22.5083  -18.9813   -5.4619 H   0  0  0  0  0  0  0  0  0  0  0  0
   25.0752  -21.6649   -4.0394 H   0  0  0  0  0  0  0  0  0  0  0  0
   24.4876  -20.6177   -4.5752 H   0  0  0  0  0  0  0  0  0  0  0  0
  1  2  1  0
  2  3  1  0
  3  4  1  0
  4  5  1  0
  5  6  1  0
  6  7  1  0
  7  8  1  0
  8  9  1  0
  9 10  1  0
 10 11  1  0
 11 12  1  0
 11 13  1  0
 13 14  1  0
 14 15  1  0
 15 16  1  0
 16 17  1  0
 17 18  1  0
 18 19  1  0
 19 20  1  0
 20 21  1  0
 21 22  1  0
 22 23  1  0
 22 24  1  0
 24 25  1  0
 25 26  1  0
 25 27  1  0
 27 28  1  0
 18 29  1  0
  9 30  1  0
 30 31  1  0
 30 32  1  0
 31  3  1  0
 32  6  1  0
 29 14  1  0
 29 16  1  0
 21 19  1  0
 25 22  1  0
  1 33  1  0
  1 34  1  0
  1 35  1  0
  2 36  1  0
  2 37  1  0
  3 38  1  0
  4 39  1  0
  4 40  1  0
  5 41  1  0
  5 42  1  0
  6 43  1  0
  7 44  1  0
  7 45  1  0
  8 46  1  0
  8 47  1  0
  9 48  1  0
 10 49  1  0
 10 50  1  0
 11 51  1  0
 12 52  1  0
 12 53  1  0
 12 54  1  0
 13 55  1  0
 13 56  1  0
 14 57  1  0
 15 58  1  0
 15 59  1  0
 16 60  1  0
 17 61  1  0
 17 62  1  0
 18 63  1  0
 19 64  1  0
 20 65  1  0
 20 66  1  0
 21 67  1  0
 23 68  1  0
 23 69  1  0
 24 70  1  0
 27 71  1  0
 27 72  1  0
 28 73  1  0
 28 74  1  0
 28 75  1  0
 29 76  1  0
 30 77  1  0
 31 78  1  0
 31 79  1  0
 32 80  1  0
 32 81  1  0
M  END
