
     RDKit          2D

 52 56  0  0  0  0  0  0  0  0999 V2000
   18.4657  -25.1062   -6.9318 C   0  0  0  0  0  0  0  0  0  0  0  0
   17.4114  -24.1879   -6.3884 C   0  0  0  0  0  0  0  0  0  0  0  0
   16.3487  -23.6424   -5.4811 C   0  0  0  0  0  0  0  0  0  0  0  0
   15.6764  -22.3425   -5.8102 C   0  0  0  0  0  0  0  0  0  0  0  0
   16.0668  -21.5881   -7.0466 C   0  0  0  0  0  0  0  0  0  0  0  0
   16.4572  -20.8338   -8.2829 C   0  0  0  0  0  0  0  0  0  0  0  0
   17.1667  -20.4893   -9.5589 C   0  0  0  0  0  0  0  0  0  0  0  0
   17.8762  -20.1449  -10.8348 C   0  0  0  0  0  0  0  0  0  0  0  0
   18.5856  -19.8005  -12.1107 C   0  0  0  0  0  0  0  0  0  0  0  0
   17.9133  -18.5006  -12.4398 C   0  0  0  0  0  0  0  0  0  0  0  0
   17.7506  -17.3145  -13.3437 O   0  0  0  0  0  0  0  0  0  0  0  0
   18.8133  -17.8600  -14.2509 C   0  0  0  0  0  0  0  0  0  0  0  0
   18.9761  -19.0461  -13.3471 C   0  0  0  0  0  0  0  0  0  0  0  0
   20.0446  -19.8800  -13.9894 C   0  0  0  0  0  0  0  0  0  0  0  0
   21.1133  -20.7139  -14.6318 C   0  0  0  0  0  0  0  0  0  0  0  0
   21.0438  -19.5800  -15.6113 C   0  0  0  0  0  0  0  0  0  0  0  0
   21.9382  -19.5731  -16.8155 S   0  0  0  0  0  0  0  0  0  0  0  0
   22.9020  -20.7003  -17.0402 N   0  0  0  0  0  0  0  0  0  0  0  0
   22.9715  -21.8343  -16.0608 C   0  0  0  0  0  0  0  0  0  0  0  0
   22.0771  -21.8411  -14.8566 N   0  0  0  0  0  0  0  0  0  0  0  0
   17.1295  -22.1337   -7.9538 C   0  0  0  0  0  0  0  0  0  0  0  0
   17.8018  -23.4336   -7.6247 C   0  0  0  0  0  0  0  0  0  0  0  0
   19.5199  -26.0244   -7.4751 H   0  0  0  0  0  0  0  0  0  0  0  0
   18.2342  -26.0487   -5.7881 H   0  0  0  0  0  0  0  0  0  0  0  0
   18.8239  -24.2826   -8.1332 H   0  0  0  0  0  0  0  0  0  0  0  0
   17.3871  -25.2612   -5.3407 H   0  0  0  0  0  0  0  0  0  0  0  0
   16.6935  -24.9051   -4.7486 H   0  0  0  0  0  0  0  0  0  0  0  0
   15.4057  -23.5353   -4.3195 H   0  0  0  0  0  0  0  0  0  0  0  0
   14.9669  -22.6870   -4.5343 H   0  0  0  0  0  0  0  0  0  0  0  0
   14.7577  -21.1622   -5.6962 H   0  0  0  0  0  0  0  0  0  0  0  0
   16.9443  -22.8044   -7.0713 H   0  0  0  0  0  0  0  0  0  0  0  0
   15.5386  -19.6535   -8.1689 H   0  0  0  0  0  0  0  0  0  0  0  0
   16.3605  -19.2290   -9.6670 H   0  0  0  0  0  0  0  0  0  0  0  0
   18.0534  -21.6983   -9.6071 H   0  0  0  0  0  0  0  0  0  0  0  0
   16.9914  -18.9346  -10.7851 H   0  0  0  0  0  0  0  0  0  0  0  0
   18.6805  -21.4066  -10.7282 H   0  0  0  0  0  0  0  0  0  0  0  0
   19.4294  -21.0399  -12.0684 H   0  0  0  0  0  0  0  0  0  0  0  0
   16.8836  -18.1253  -11.4157 H   0  0  0  0  0  0  0  0  0  0  0  0
   19.6516  -18.1816  -15.0695 H   0  0  0  0  0  0  0  0  0  0  0  0
   18.6506  -16.6741  -15.1547 H   0  0  0  0  0  0  0  0  0  0  0  0
   20.3034  -19.2407  -14.3891 H   0  0  0  0  0  0  0  0  0  0  0  0
   19.6917  -21.1758  -13.3214 H   0  0  0  0  0  0  0  0  0  0  0  0
   20.8117  -21.5583  -13.4293 H   0  0  0  0  0  0  0  0  0  0  0  0
   20.6116  -18.2932  -16.2495 H   0  0  0  0  0  0  0  0  0  0  0  0
   20.3432  -19.1950  -15.0372 H   0  0  0  0  0  0  0  0  0  0  0  0
   23.7964  -20.6935  -18.2444 H   0  0  0  0  0  0  0  0  0  0  0  0
   23.4038  -23.1211  -15.4226 H   0  0  0  0  0  0  0  0  0  0  0  0
   24.0160  -22.2743  -17.0433 H   0  0  0  0  0  0  0  0  0  0  0  0
   22.1467  -22.9750  -13.8772 H   0  0  0  0  0  0  0  0  0  0  0  0
   18.0441  -22.1724   -9.1421 H   0  0  0  0  0  0  0  0  0  0  0  0
   18.5113  -23.0891   -8.9006 H   0  0  0  0  0  0  0  0  0  0  0  0
   18.7817  -24.5370   -7.8933 H   0  0  0  0  0  0  0  0  0  0  0  0
  1  2  1  0
  2  3  1  0
  3  4  1  0
  4  5  1  0
  5  6  1  0
  6  7  1  0
  7  8  1  0
  8  9  1  0
  9 10  1  0
 10 11  1  0
 11 12  1  0
 12 13  1  0
 13 14  1  0
 14 15  1  0
 15 16  1  0
 16 17  1  0
 17 18  1  0
 18 19  1  0
 19 20  1  0
  6 21  1  0
 21 22  1  0
 22  2  1  0
 21  5  1  0
 13  9  1  0
 20 15  1  0
 13 10  1  0
  1 23  1  0
  1 24  1  0
  1 25  1  0
  2 26  1  0
  3 27  1  0
  3 28  1  0
  4 29  1  0
  4 30  1  0
  5 31  1  0
  6 32  1  0
  7 33  1  0
  7 34  1  0
  8 35  1  0
  8 36  1  0
  9 37  1  0
 10 38  1  0
 12 39  1  0
 12 40  1  0
 14 41  1  0
 14 42  1  0
 15 43  1  0
 16 44  1  0
 16 45  1  0
 18 46  1  0
 19 47  1  0
 19 48  1  0
 20 49  1  0
 21 50  1  0
 22 51  1  0
 22 52  1  0
M  END
