
     RDKit          2D

120125  0  0  0  0  0  0  0  0999 V2000
    8.8552   21.1764   12.6362 C   0  0  0  0  0  0  0  0  0  0  0  0
    8.3858   21.8561   11.3842 C   0  0  0  0  0  0  0  0  0  0  0  0
    7.9165   22.5359   10.1321 C   0  0  0  0  0  0  0  0  0  0  0  0
    7.4471   23.2156    8.8801 C   0  0  0  0  0  0  0  0  0  0  0  0
    6.9778   23.8953    7.6279 C   0  0  0  0  0  0  0  0  0  0  0  0
    6.2299   23.7093    9.6043 C   0  0  0  0  0  0  0  0  0  0  0  0
    5.0126   24.2030   10.3286 C   0  0  0  0  0  0  0  0  0  0  0  0
    3.7955   24.6967   11.0529 C   0  0  0  0  0  0  0  0  0  0  0  0
    5.7620   24.3914    8.3531 O   0  0  0  0  0  0  0  0  0  0  0  0
    4.4741   25.1603    8.3547 C   0  0  0  0  0  0  0  0  0  0  0  0
    3.1861   25.9291    8.3564 C   0  0  0  0  0  0  0  0  0  0  0  0
    3.3860   26.2673    6.9087 C   0  0  0  0  0  0  0  0  0  0  0  0
    2.0980   27.0362    6.9105 C   0  0  0  0  0  0  0  0  0  0  0  0
    0.8101   27.8050    6.9122 C   0  0  0  0  0  0  0  0  0  0  0  0
   -0.4779   28.5738    6.9138 C   0  0  0  0  0  0  0  0  0  0  0  0
   -1.7658   29.3427    6.9155 C   0  0  0  0  0  0  0  0  0  0  0  0
   -3.0538   30.1115    6.9172 C   0  0  0  0  0  0  0  0  0  0  0  0
   -4.3324   30.7184    7.4139 C   0  0  0  0  0  0  0  0  0  0  0  0
   -4.8034   31.3955    6.1610 C   0  0  0  0  0  0  0  0  0  0  0  0
   -3.4743   29.9122    8.3432 C   0  0  0  0  0  0  0  0  0  0  0  0
   -4.2913   30.0040    9.5977 C   0  0  0  0  0  0  0  0  0  0  0  0
   -0.0684   29.2626    5.6457 N   0  0  0  0  0  0  0  0  0  0  0  0
    1.2506   28.9392    5.0089 C   0  0  0  0  0  0  0  0  0  0  0  0
    0.9577   29.9143    3.9072 C   0  0  0  0  0  0  0  0  0  0  0  0
    2.2768   29.5909    3.2704 C   0  0  0  0  0  0  0  0  0  0  0  0
    1.9838   30.5659    2.1688 C   0  0  0  0  0  0  0  0  0  0  0  0
    3.5958   29.2675    2.6336 C   0  0  0  0  0  0  0  0  0  0  0  0
    3.8887   28.2926    3.7351 C   0  0  0  0  0  0  0  0  0  0  0  0
    2.5697   28.6159    4.3720 C   0  0  0  0  0  0  0  0  0  0  0  0
    3.5860   26.6055    5.4611 C   0  0  0  0  0  0  0  0  0  0  0  0
    3.7860   26.9436    4.0134 C   0  0  0  0  0  0  0  0  0  0  0  0
    3.9859   27.2818    2.5659 C   0  0  0  0  0  0  0  0  0  0  0  0
    4.6142   27.3363    1.2049 C   0  0  0  0  0  0  0  0  0  0  0  0
    3.5992   28.1719    0.4827 C   0  0  0  0  0  0  0  0  0  0  0  0
    5.2886   26.5826    2.3125 C   0  0  0  0  0  0  0  0  0  0  0  0
    6.5036   26.0851    1.5871 C   0  0  0  0  0  0  0  0  0  0  0  0
    7.7186   25.5877    0.8616 C   0  0  0  0  0  0  0  0  0  0  0  0
    8.9336   25.0903    0.1360 C   0  0  0  0  0  0  0  0  0  0  0  0
    5.0726   26.5596    5.6558 C   0  0  0  0  0  0  0  0  0  0  0  0
    5.2469   26.1398    4.2263 C   0  0  0  0  0  0  0  0  0  0  0  0
    4.8984   26.9794    7.0852 C   0  0  0  0  0  0  0  0  0  0  0  0
    6.3850   26.9336    7.2799 C   0  0  0  0  0  0  0  0  0  0  0  0
    6.5592   26.5138    5.8504 C   0  0  0  0  0  0  0  0  0  0  0  0
    6.7335   26.0940    4.4210 N   0  0  0  0  0  0  0  0  0  0  0  0
    4.6740   25.4985    6.9071 N   0  0  0  0  0  0  0  0  0  0  0  0
    9.3245   20.4967   13.8883 H   0  0  0  0  0  0  0  0  0  0  0  0
    9.9826   20.7310   11.7528 H   0  0  0  0  0  0  0  0  0  0  0  0
   10.0970   20.5653   12.0580 H   0  0  0  0  0  0  0  0  0  0  0  0
    6.9613   21.6535   11.8081 H   0  0  0  0  0  0  0  0  0  0  0  0
    9.8103   22.0588   10.9602 H   0  0  0  0  0  0  0  0  0  0  0  0
    6.8389   23.0552   11.0371 H   0  0  0  0  0  0  0  0  0  0  0  0
    9.0599   21.9291    9.3741 H   0  0  0  0  0  0  0  0  0  0  0  0
    8.6643   22.7219    8.1557 H   0  0  0  0  0  0  0  0  0  0  0  0
    6.8621   24.5540    6.2853 H   0  0  0  0  0  0  0  0  0  0  0  0
    8.3818   23.8921    7.0999 H   0  0  0  0  0  0  0  0  0  0  0  0
    5.5271   23.9814    7.9995 H   0  0  0  0  0  0  0  0  0  0  0  0
    6.5460   23.0924   10.9346 H   0  0  0  0  0  0  0  0  0  0  0  0
    5.6131   23.7696   11.6331 H   0  0  0  0  0  0  0  0  0  0  0  0
    3.9109   24.8175    9.5170 H   0  0  0  0  0  0  0  0  0  0  0  0
    2.5782   25.1904   11.7772 H   0  0  0  0  0  0  0  0  0  0  0  0
    4.6678   25.2580   12.1364 H   0  0  0  0  0  0  0  0  0  0  0  0
    2.7812   24.1998   10.0658 H   0  0  0  0  0  0  0  0  0  0  0  0
    4.1186   24.9183    9.7918 H   0  0  0  0  0  0  0  0  0  0  0  0
    2.8306   25.6872    9.7934 H   0  0  0  0  0  0  0  0  0  0  0  0
    1.8833   26.6510    8.5346 H   0  0  0  0  0  0  0  0  0  0  0  0
    2.4513   27.2744    5.4722 H   0  0  0  0  0  0  0  0  0  0  0  0
    1.7448   26.7979    8.3487 H   0  0  0  0  0  0  0  0  0  0  0  0
    1.4628   27.8524    5.5624 H   0  0  0  0  0  0  0  0  0  0  0  0
    0.6054   27.4590    8.3573 H   0  0  0  0  0  0  0  0  0  0  0  0
   -0.8874   27.8851    8.1819 H   0  0  0  0  0  0  0  0  0  0  0  0
   -1.8075   28.9131    8.3520 H   0  0  0  0  0  0  0  0  0  0  0  0
   -1.7242   29.7723    5.4790 H   0  0  0  0  0  0  0  0  0  0  0  0
   -2.9216   30.4892    5.4716 H   0  0  0  0  0  0  0  0  0  0  0  0
   -5.5215   31.1792    8.2037 H   0  0  0  0  0  0  0  0  0  0  0  0
   -5.2743   32.0726    4.9081 H   0  0  0  0  0  0  0  0  0  0  0  0
   -6.0121   31.9035    6.8898 H   0  0  0  0  0  0  0  0  0  0  0  0
   -3.6611   30.9739    5.2849 H   0  0  0  0  0  0  0  0  0  0  0  0
   -2.4175   29.0738    8.9990 H   0  0  0  0  0  0  0  0  0  0  0  0
   -5.1084   30.0957   10.8523 H   0  0  0  0  0  0  0  0  0  0  0  0
   -5.3034   30.8446    8.8772 H   0  0  0  0  0  0  0  0  0  0  0  0
   -3.3864   29.1809   10.4659 H   0  0  0  0  0  0  0  0  0  0  0  0
   -0.9779   30.2746    5.0146 H   0  0  0  0  0  0  0  0  0  0  0  0
    1.7021   27.9322    6.0247 H   0  0  0  0  0  0  0  0  0  0  0  0
    0.5062   30.9214    2.8914 H   0  0  0  0  0  0  0  0  0  0  0  0
   -0.3872   30.3540    4.4051 H   0  0  0  0  0  0  0  0  0  0  0  0
    1.6910   31.5409    1.0671 H   0  0  0  0  0  0  0  0  0  0  0  0
    3.2578   30.3646    1.4029 H   0  0  0  0  0  0  0  0  0  0  0  0
    0.6385   31.0049    2.6660 H   0  0  0  0  0  0  0  0  0  0  0  0
    4.8047   29.1898    1.7490 H   0  0  0  0  0  0  0  0  0  0  0  0
    3.4659   30.1959    1.4624 H   0  0  0  0  0  0  0  0  0  0  0  0
    4.3402   27.2854    4.7510 H   0  0  0  0  0  0  0  0  0  0  0  0
    5.0151   28.3402    2.7458 H   0  0  0  0  0  0  0  0  0  0  0  0
    3.0212   27.6088    5.3879 H   0  0  0  0  0  0  0  0  0  0  0  0
    4.9801   26.4792    6.0002 H   0  0  0  0  0  0  0  0  0  0  0  0
    5.0830   26.2777    3.6610 H   0  0  0  0  0  0  0  0  0  0  0  0
    2.5857   27.7732    3.6653 H   0  0  0  0  0  0  0  0  0  0  0  0
    2.8132   28.1166    2.1444 H   0  0  0  0  0  0  0  0  0  0  0  0
    5.4831   27.2008   -0.0103 H   0  0  0  0  0  0  0  0  0  0  0  0
    2.5841   29.0075   -0.2395 H   0  0  0  0  0  0  0  0  0  0  0  0
    4.4160   28.0798   -0.7721 H   0  0  0  0  0  0  0  0  0  0  0  0
    2.9122   28.1614    1.8160 H   0  0  0  0  0  0  0  0  0  0  0  0
    6.1117   25.7843    3.2797 H   0  0  0  0  0  0  0  0  0  0  0  0
    6.1846   26.6971    0.2552 H   0  0  0  0  0  0  0  0  0  0  0  0
    7.1188   25.3519    2.7420 H   0  0  0  0  0  0  0  0  0  0  0  0
    7.2483   26.2658   -0.3911 H   0  0  0  0  0  0  0  0  0  0  0  0
    8.1889   24.9096    2.1142 H   0  0  0  0  0  0  0  0  0  0  0  0
   10.1487   24.5928   -0.5894 H   0  0  0  0  0  0  0  0  0  0  0  0
    9.4036   24.4116    1.3885 H   0  0  0  0  0  0  0  0  0  0  0  0
    8.4636   25.7690   -1.1163 H   0  0  0  0  0  0  0  0  0  0  0  0
    5.7521   25.8693    2.8401 H   0  0  0  0  0  0  0  0  0  0  0  0
    6.6371   26.5868    3.8836 H   0  0  0  0  0  0  0  0  0  0  0  0
    3.8891   25.5275    4.0487 H   0  0  0  0  0  0  0  0  0  0  0  0
    4.9067   27.3905    8.5278 H   0  0  0  0  0  0  0  0  0  0  0  0
    3.4137   27.1255    7.2423 H   0  0  0  0  0  0  0  0  0  0  0  0
    7.8696   26.7876    7.1229 H   0  0  0  0  0  0  0  0  0  0  0  0
    6.3933   27.3447    8.7224 H   0  0  0  0  0  0  0  0  0  0  0  0
    8.0459   26.4680    6.0450 H   0  0  0  0  0  0  0  0  0  0  0  0
    8.1675   25.8568    4.0504 H   0  0  0  0  0  0  0  0  0  0  0  0
    6.2644   25.7471    3.0390 H   0  0  0  0  0  0  0  0  0  0  0  0
    5.8811   25.0135    6.1601 H   0  0  0  0  0  0  0  0  0  0  0  0
  1  2  1  0
  2  3  1  0
  3  4  1  0
  4  5  1  0
  4  6  1  0
  6  7  1  0
  7  8  1  0
  6  9  1  0
  9 10  1  0
 10 11  1  0
 11 12  1  0
 12 13  1  0
 13 14  1  0
 14 15  1  0
 15 16  1  0
 16 17  1  0
 17 18  1  0
 18 19  1  0
 18 20  1  0
 20 21  1  0
 15 22  1  0
 22 23  1  0
 23 24  1  0
 24 25  1  0
 25 26  1  0
 25 27  1  0
 27 28  1  0
 28 29  1  0
 12 30  1  0
 30 31  1  0
 31 32  1  0
 32 33  1  0
 33 34  1  0
 33 35  1  0
 35 36  1  0
 36 37  1  0
 37 38  1  0
 30 39  1  0
 39 40  1  0
 39 41  1  0
 41 42  1  0
 42 43  1  0
 43 44  1  0
 12 45  1  0
 45 10  1  0
 20 17  1  0
 29 23  1  0
 35 32  1  0
 43 39  1  0
 29 25  1  0
  1 46  1  0
  1 47  1  0
  1 48  1  0
  2 49  1  0
  2 50  1  0
  3 51  1  0
  3 52  1  0
  4 53  1  0
  5 54  1  0
  5 55  1  0
  5 56  1  0
  6 57  1  0
  7 58  1  0
  7 59  1  0
  8 60  1  0
  8 61  1  0
  8 62  1  0
 10 63  1  0
 11 64  1  0
 11 65  1  0
 13 66  1  0
 13 67  1  0
 14 68  1  0
 14 69  1  0
 15 70  1  0
 16 71  1  0
 16 72  1  0
 17 73  1  0
 18 74  1  0
 19 75  1  0
 19 76  1  0
 19 77  1  0
 20 78  1  0
 21 79  1  0
 21 80  1  0
 21 81  1  0
 22 82  1  0
 23 83  1  0
 24 84  1  0
 24 85  1  0
 26 86  1  0
 26 87  1  0
 26 88  1  0
 27 89  1  0
 27 90  1  0
 28 91  1  0
 28 92  1  0
 29 93  1  0
 30 94  1  0
 31 95  1  0
 31 96  1  0
 32 97  1  0
 33 98  1  0
 34 99  1  0
 34100  1  0
 34101  1  0
 35102  1  0
 36103  1  0
 36104  1  0
 37105  1  0
 37106  1  0
 38107  1  0
 38108  1  0
 38109  1  0
 40110  1  0
 40111  1  0
 40112  1  0
 41113  1  0
 41114  1  0
 42115  1  0
 42116  1  0
 43117  1  0
 44118  1  0
 44119  1  0
 45120  1  0
M  END
