
     RDKit          2D

 51 53  0  0  0  0  0  0  0  0999 V2000
   20.9204  -19.6446  -13.5641 C   0  0  0  0  0  0  0  0  0  0  0  0
   22.2712  -20.1226  -14.0076 C   0  0  0  0  0  0  0  0  0  0  0  0
   23.6220  -20.6007  -14.4511 C   0  0  0  0  0  0  0  0  0  0  0  0
   24.9729  -21.0788  -14.8946 C   0  0  0  0  0  0  0  0  0  0  0  0
   23.6629  -21.5568  -13.2960 N   0  0  0  0  0  0  0  0  0  0  0  0
   22.5148  -21.6188  -12.3326 C   0  0  0  0  0  0  0  0  0  0  0  0
   21.3667  -21.6806  -11.3693 C   0  0  0  0  0  0  0  0  0  0  0  0
   22.0766  -22.7491  -10.5919 O   0  0  0  0  0  0  0  0  0  0  0  0
   20.2186  -21.7425  -10.4059 C   0  0  0  0  0  0  0  0  0  0  0  0
   19.0705  -21.8044   -9.4426 C   0  0  0  0  0  0  0  0  0  0  0  0
   17.9224  -21.8663   -8.4792 C   0  0  0  0  0  0  0  0  0  0  0  0
   18.8702  -22.8940   -7.9355 N   0  0  0  0  0  0  0  0  0  0  0  0
   18.7095  -23.7677   -6.7269 C   0  0  0  0  0  0  0  0  0  0  0  0
   17.9832  -24.2870   -5.5216 N   0  0  0  0  0  0  0  0  0  0  0  0
   16.6406  -23.8792   -4.9911 C   0  0  0  0  0  0  0  0  0  0  0  0
   15.6929  -22.8516   -5.5348 C   0  0  0  0  0  0  0  0  0  0  0  0
   15.8536  -21.9778   -6.7434 C   0  0  0  0  0  0  0  0  0  0  0  0
   16.7390  -22.8939   -6.2899 C   0  0  0  0  0  0  0  0  0  0  0  0
   17.4952  -23.3679   -6.2856 C   0  0  0  0  0  0  0  0  0  0  0  0
   15.2313  -20.9080   -7.5908 C   0  0  0  0  0  0  0  0  0  0  0  0
   13.9435  -20.7043   -6.8491 I   0  0  0  0  0  0  0  0  0  0  0  0
   16.5799  -21.4585   -7.9487 N   0  0  0  0  0  0  0  0  0  0  0  0
   19.5695  -19.1665  -13.1206 H   0  0  0  0  0  0  0  0  0  0  0  0
   20.8782  -18.6907  -14.7210 H   0  0  0  0  0  0  0  0  0  0  0  0
   20.7976  -20.5331  -12.3618 H   0  0  0  0  0  0  0  0  0  0  0  0
   22.0337  -20.5067  -13.3506 H   0  0  0  0  0  0  0  0  0  0  0  0
   22.2313  -19.1651  -15.1614 H   0  0  0  0  0  0  0  0  0  0  0  0
   23.5811  -19.6446  -15.6062 H   0  0  0  0  0  0  0  0  0  0  0  0
   26.3237  -21.5569  -15.3381 H   0  0  0  0  0  0  0  0  0  0  0  0
   24.9323  -20.1222  -16.0493 H   0  0  0  0  0  0  0  0  0  0  0  0
   25.1777  -22.0865  -13.8026 H   0  0  0  0  0  0  0  0  0  0  0  0
   24.7651  -22.5160  -12.9566 H   0  0  0  0  0  0  0  0  0  0  0  0
   23.3593  -22.6718  -11.6785 H   0  0  0  0  0  0  0  0  0  0  0  0
   22.0660  -21.0590  -12.6803 H   0  0  0  0  0  0  0  0  0  0  0  0
   20.5221  -20.6276  -12.0235 H   0  0  0  0  0  0  0  0  0  0  0  0
   23.4207  -23.3428  -10.8934 H   0  0  0  0  0  0  0  0  0  0  0  0
   19.5088  -20.6740  -11.1834 H   0  0  0  0  0  0  0  0  0  0  0  0
   20.9285  -22.8111   -9.6286 H   0  0  0  0  0  0  0  0  0  0  0  0
   19.9161  -22.8557   -8.7871 H   0  0  0  0  0  0  0  0  0  0  0  0
   18.3595  -20.7376  -10.2214 H   0  0  0  0  0  0  0  0  0  0  0  0
   17.4856  -20.8110   -9.4518 H   0  0  0  0  0  0  0  0  0  0  0  0
   20.1912  -23.1986   -8.5774 H   0  0  0  0  0  0  0  0  0  0  0  0
   16.9185  -24.9049   -3.9324 H   0  0  0  0  0  0  0  0  0  0  0  0
   15.6985  -24.1978   -3.8681 H   0  0  0  0  0  0  0  0  0  0  0  0
   14.8333  -23.2529   -4.3729 H   0  0  0  0  0  0  0  0  0  0  0  0
   14.4869  -21.9739   -5.6930 H   0  0  0  0  0  0  0  0  0  0  0  0
   14.9752  -22.7489   -5.1080 H   0  0  0  0  0  0  0  0  0  0  0  0
   16.1297  -23.9068   -4.5623 H   0  0  0  0  0  0  0  0  0  0  0  0
   16.8351  -24.3489   -4.5582 H   0  0  0  0  0  0  0  0  0  0  0  0
   18.2483  -24.8989   -4.9668 H   0  0  0  0  0  0  0  0  0  0  0  0
   15.0563  -19.9088   -8.6959 H   0  0  0  0  0  0  0  0  0  0  0  0
  1  2  1  0
  2  3  1  0
  3  4  1  0
  3  5  1  0
  5  6  1  0
  6  7  1  0
  7  8  1  0
  7  9  1  0
  9 10  1  0
 10 11  1  0
 11 12  1  0
 12 13  1  0
 13 14  2  0
 14 15  1  0
 15 16  1  0
 16 17  1  0
 17 18  1  0
 18 19  1  0
 17 20  1  0
 20 21  1  0
 20 22  1  0
 22 11  1  0
 19 13  1  0
 22 17  1  0
  1 23  1  0
  1 24  1  0
  1 25  1  0
  2 26  1  0
  2 27  1  0
  3 28  1  0
  4 29  1  0
  4 30  1  0
  4 31  1  0
  5 32  1  0
  6 33  1  0
  6 34  1  0
  7 35  1  0
  8 36  1  0
  9 37  1  0
  9 38  1  0
 10 39  1  0
 10 40  1  0
 11 41  1  0
 12 42  1  0
 15 43  1  0
 15 44  1  0
 16 45  1  0
 16 46  1  0
 18 47  1  0
 18 48  1  0
 19 49  1  0
 19 50  1  0
 20 51  1  0
M  END
