
     RDKit          2D

 42 44  0  0  0  0  0  0  0  0999 V2000
   -4.0152   23.9387    7.2341 C   0  0  0  0  0  0  0  0  0  0  0  0
   -2.8720   23.9905    6.2643 C   0  0  0  0  0  0  0  0  0  0  0  0
   -1.7289   24.0424    5.2946 N   0  0  0  0  0  0  0  0  0  0  0  0
   -1.1761   23.7889    3.9234 C   0  0  0  0  0  0  0  0  0  0  0  0
   -0.8274   23.4574    2.5026 C   0  0  0  0  0  0  0  0  0  0  0  0
    0.4817   23.6407    1.7936 C   0  0  0  0  0  0  0  0  0  0  0  0
    1.7655   24.2009    2.3303 C   0  0  0  0  0  0  0  0  0  0  0  0
    2.1141   23.8694    0.9096 O   0  0  0  0  0  0  0  0  0  0  0  0
    2.0573   24.7161    3.7086 C   0  0  0  0  0  0  0  0  0  0  0  0
    3.3663   24.8994    2.9996 C   0  0  0  0  0  0  0  0  0  0  0  0
    1.1373   24.7983    4.8904 C   0  0  0  0  0  0  0  0  0  0  0  0
   -0.3017   24.3857    4.9861 C   0  0  0  0  0  0  0  0  0  0  0  0
   -0.2232   24.8495    6.4105 C   0  0  0  0  0  0  0  0  0  0  0  0
   -1.6575   24.4617    6.6158 C   0  0  0  0  0  0  0  0  0  0  0  0
   -1.5791   24.9255    8.0400 C   0  0  0  0  0  0  0  0  0  0  0  0
   -1.5006   25.3894    9.4644 O   0  0  0  0  0  0  0  0  0  0  0  0
   -0.1447   25.3134    7.8347 C   0  0  0  0  0  0  0  0  0  0  0  0
   -5.1584   23.8868    8.2038 H   0  0  0  0  0  0  0  0  0  0  0  0
   -4.9839   24.1058    6.1011 H   0  0  0  0  0  0  0  0  0  0  0  0
   -3.1932   23.7664    8.4769 H   0  0  0  0  0  0  0  0  0  0  0  0
   -2.2868   23.9115    6.7998 H   0  0  0  0  0  0  0  0  0  0  0  0
   -3.8412   24.1468    5.1302 H   0  0  0  0  0  0  0  0  0  0  0  0
   -2.5425   23.2666    3.5916 H   0  0  0  0  0  0  0  0  0  0  0  0
   -2.2664   23.0448    2.5982 H   0  0  0  0  0  0  0  0  0  0  0  0
   -1.2888   22.9089    1.1850 H   0  0  0  0  0  0  0  0  0  0  0  0
   -0.2469   23.0548    0.6207 H   0  0  0  0  0  0  0  0  0  0  0  0
    1.1064   23.4174    0.4484 H   0  0  0  0  0  0  0  0  0  0  0  0
    3.1973   24.5575    2.0605 H   0  0  0  0  0  0  0  0  0  0  0  0
    3.4977   24.1357    0.3951 H   0  0  0  0  0  0  0  0  0  0  0  0
    3.0645   25.3147    4.6451 H   0  0  0  0  0  0  0  0  0  0  0  0
    4.6754   25.0828    2.2906 H   0  0  0  0  0  0  0  0  0  0  0  0
    3.9640   25.4712    4.2509 H   0  0  0  0  0  0  0  0  0  0  0  0
    2.9328   24.3542    1.6711 H   0  0  0  0  0  0  0  0  0  0  0  0
    2.3322   25.3801    5.5858 H   0  0  0  0  0  0  0  0  0  0  0  0
    0.7887   25.1298    6.3113 H   0  0  0  0  0  0  0  0  0  0  0  0
   -1.5903   24.3212    6.0916 H   0  0  0  0  0  0  0  0  0  0  0  0
   -3.0303   24.1976    7.1596 H   0  0  0  0  0  0  0  0  0  0  0  0
   -2.0807   23.9178    5.2834 H   0  0  0  0  0  0  0  0  0  0  0  0
   -2.9931   24.5971    8.4175 H   0  0  0  0  0  0  0  0  0  0  0  0
   -2.7035   25.2854   10.3544 H   0  0  0  0  0  0  0  0  0  0  0  0
    1.2897   25.7012    7.6294 H   0  0  0  0  0  0  0  0  0  0  0  0
   -0.0662   25.7772    9.2591 H   0  0  0  0  0  0  0  0  0  0  0  0
  1  2  1  0
  2  3  1  0
  3  4  1  0
  4  5  1  0
  5  6  1  0
  6  7  1  0
  7  8  1  0
  7  9  1  0
  9 10  1  0
  9 11  1  0
 11 12  1  0
 12 13  1  0
 13 14  1  0
 14 15  1  0
 15 16  1  0
 15 17  1  0
 12  3  1  0
 17 13  1  0
 12  4  1  0
  1 18  1  0
  1 19  1  0
  1 20  1  0
  2 21  1  0
  2 22  1  0
  4 23  1  0
  5 24  1  0
  5 25  1  0
  6 26  1  0
  6 27  1  0
  7 28  1  0
  8 29  1  0
  9 30  1  0
 10 31  1  0
 10 32  1  0
 10 33  1  0
 11 34  1  0
 11 35  1  0
 13 36  1  0
 14 37  1  0
 14 38  1  0
 15 39  1  0
 16 40  1  0
 17 41  1  0
 17 42  1  0
M  END
