
     RDKit          2D

 47 58  0  0  0  0  0  0  0  0999 V2000
   16.3084  -20.0564  -10.0336 C   0  0  0  0  0  0  0  0  0  0  0  0
   15.2936  -18.9926  -10.3310 C   0  0  0  0  0  0  0  0  0  0  0  0
   14.5786  -17.8890  -11.0526 B   0  0  0  0  0  0  0  0  0  0  0  0
   15.8042  -18.5088  -11.6558 C   0  0  0  0  0  0  0  0  0  0  0  0
   16.9962  -19.4047  -11.8185 N   0  0  0  0  0  0  0  0  0  0  0  0
   17.8744  -20.5051  -11.3011 C   0  0  0  0  0  0  0  0  0  0  0  0
   18.2036  -21.5152  -10.2423 N   0  0  0  0  0  0  0  0  0  0  0  0
   17.3406  -21.6296   -9.0206 O   0  0  0  0  0  0  0  0  0  0  0  0
   17.6697  -22.6398   -7.9618 C   0  0  0  0  0  0  0  0  0  0  0  0
   16.5584  -22.3708   -6.9908 C   0  0  0  0  0  0  0  0  0  0  0  0
   16.4619  -23.1658   -5.7225 C   0  0  0  0  0  0  0  0  0  0  0  0
   17.5732  -23.4347   -6.6934 C   0  0  0  0  0  0  0  0  0  0  0  0
   18.1827  -19.8559  -12.6178 C   0  0  0  0  0  0  0  0  0  0  0  0
   18.4909  -19.2066  -13.9344 N   0  0  0  0  0  0  0  0  0  0  0  0
   19.3538  -19.0923  -15.1559 C   0  0  0  0  0  0  0  0  0  0  0  0
   20.2321  -20.1928  -14.6385 C   0  0  0  0  0  0  0  0  0  0  0  0
   20.5612  -21.2030  -13.5797 C   0  0  0  0  0  0  0  0  0  0  0  0
   20.8903  -22.2131  -12.5208 N   0  0  0  0  0  0  0  0  0  0  0  0
   21.7532  -22.0988  -13.7424 C   0  0  0  0  0  0  0  0  0  0  0  0
   22.9453  -22.9947  -13.9051 C   0  0  0  0  0  0  0  0  0  0  0  0
   24.0472  -24.0059  -13.7905 C   0  0  0  0  0  0  0  0  0  0  0  0
   23.8653  -24.7453  -12.4981 C   0  0  0  0  0  0  0  0  0  0  0  0
   22.6509  -24.1909  -11.8139 C   0  0  0  0  0  0  0  0  0  0  0  0
   22.8328  -23.4516  -13.1063 C   0  0  0  0  0  0  0  0  0  0  0  0
   22.0824  -23.1090  -12.6835 C   0  0  0  0  0  0  0  0  0  0  0  0
   19.3691  -20.3071  -13.4170 C   0  0  0  0  0  0  0  0  0  0  0  0
   17.1383  -20.0230  -11.0978 H   0  0  0  0  0  0  0  0  0  0  0  0
   15.6110  -20.3602   -8.7407 H   0  0  0  0  0  0  0  0  0  0  0  0
   16.9692  -20.9521   -9.5464 H   0  0  0  0  0  0  0  0  0  0  0  0
   14.4307  -19.1069   -9.1094 H   0  0  0  0  0  0  0  0  0  0  0  0
   13.4582  -16.8940  -11.1210 H   0  0  0  0  0  0  0  0  0  0  0  0
   15.9007  -17.7138  -12.9242 H   0  0  0  0  0  0  0  0  0  0  0  0
   18.8954  -23.2596   -8.5650 H   0  0  0  0  0  0  0  0  0  0  0  0
   15.5437  -21.3070   -7.2882 H   0  0  0  0  0  0  0  0  0  0  0  0
   15.2364  -22.5460   -5.1193 H   0  0  0  0  0  0  0  0  0  0  0  0
   16.7910  -24.1759   -4.6636 H   0  0  0  0  0  0  0  0  0  0  0  0
   18.5879  -24.4986   -6.3960 H   0  0  0  0  0  0  0  0  0  0  0  0
   20.2167  -18.9780  -16.3776 H   0  0  0  0  0  0  0  0  0  0  0  0
   18.4756  -17.9919  -15.6733 H   0  0  0  0  0  0  0  0  0  0  0  0
   21.2929  -20.3671  -15.6846 H   0  0  0  0  0  0  0  0  0  0  0  0
   23.3763  -22.4426  -15.2315 H   0  0  0  0  0  0  0  0  0  0  0  0
   25.1393  -24.2372  -14.7924 H   0  0  0  0  0  0  0  0  0  0  0  0
   25.0953  -25.4865  -12.9310 H   0  0  0  0  0  0  0  0  0  0  0  0
   23.9405  -25.6395  -11.2962 H   0  0  0  0  0  0  0  0  0  0  0  0
   22.1016  -24.6397  -10.4922 H   0  0  0  0  0  0  0  0  0  0  0  0
   22.2690  -22.8988  -13.2161 H   0  0  0  0  0  0  0  0  0  0  0  0
   22.4624  -22.4262  -14.1367 H   0  0  0  0  0  0  0  0  0  0  0  0
  1  2  1  0
  2  3  1  0
  3  4  1  0
  4  5  1  0
  5  6  1  0
  6  7  2  3
  7  8  1  0
  8  9  1  0
  9 10  1  0
 10 11  1  0
 11 12  1  0
  6 13  1  0
 13 14  1  0
 14 15  1  0
 15 16  1  0
 16 17  1  0
 17 18  1  1
 19 18  1  6
 19 20  1  0
 20 21  1  0
 21 22  1  0
 22 23  1  0
 23 24  1  0
 23 25  1  0
 17 26  1  0
  4  2  1  0
 13  5  1  1
 26 14  1  6
 12  9  1  0
 26 13  1  0
 12 10  1  0
 26 16  1  0
 19 17  1  0
 25 20  1  0
 25 18  1  1
 25 19  1  0
 24 21  1  0
  1 27  1  0
  1 28  1  0
  1 29  1  0
  2 30  1  1
  3 31  1  0
  4 32  1  1
  9 33  1  1
 10 34  1  1
 11 35  1  0
 11 36  1  0
 12 37  1  1
 15 38  1  0
 15 39  1  0
 16 40  1  1
 20 41  1  1
 21 42  1  6
 22 43  1  0
 22 44  1  0
 23 45  1  6
 24 46  1  0
 24 47  1  0
M  END
