
     RDKit          2D

 91107  0  0  0  0  0  0  0  0999 V2000
   12.3299  -23.4918   -5.1140 C   0  0  0  0  0  0  0  0  0  0  0  0
   13.7532  -23.7648   -4.7273 C   0  0  0  0  0  0  0  0  0  0  0  0
   14.8616  -23.4810   -5.6974 C   0  0  0  0  0  0  0  0  0  0  0  0
   15.9699  -23.1973   -6.6675 C   0  0  0  0  0  0  0  0  0  0  0  0
   15.6549  -22.6406   -8.0242 C   0  0  0  0  0  0  0  0  0  0  0  0
   14.5037  -22.2068   -8.8825 C   0  0  0  0  0  0  0  0  0  0  0  0
   14.0511  -21.6532  -10.2011 C   0  0  0  0  0  0  0  0  0  0  0  0
   12.8524  -21.8901   -9.3311 C   0  0  0  0  0  0  0  0  0  0  0  0
   11.6537  -22.1270   -8.4611 N   0  0  0  0  0  0  0  0  0  0  0  0
   14.4409  -21.1555  -11.5614 N   0  0  0  0  0  0  0  0  0  0  0  0
   15.5492  -20.8718  -12.5315 C   0  0  0  0  0  0  0  0  0  0  0  0
   17.0242  -20.8920  -12.8034 C   0  0  0  0  0  0  0  0  0  0  0  0
   16.3654  -21.4380  -11.2604 C   0  0  0  0  0  0  0  0  0  0  0  0
   16.5804  -21.9938   -9.8839 C   0  0  0  0  0  0  0  0  0  0  0  0
   17.8792  -21.8202  -10.6138 C   0  0  0  0  0  0  0  0  0  0  0  0
   18.4724  -22.1382   -9.9294 C   0  0  0  0  0  0  0  0  0  0  0  0
   17.8713  -22.3651   -9.2163 C   0  0  0  0  0  0  0  0  0  0  0  0
   19.2661  -22.2723   -9.7604 C   0  0  0  0  0  0  0  0  0  0  0  0
   19.2333  -21.7244  -11.1564 C   0  0  0  0  0  0  0  0  0  0  0  0
   19.8892  -21.2830  -12.4311 C   0  0  0  0  0  0  0  0  0  0  0  0
   19.7118  -20.7150  -13.8468 C   0  0  0  0  0  0  0  0  0  0  0  0
   18.2230  -20.6551  -13.6734 C   0  0  0  0  0  0  0  0  0  0  0  0
   18.3977  -21.2099  -12.2908 C   0  0  0  0  0  0  0  0  0  0  0  0
   19.9801  -22.8047   -8.5535 C   0  0  0  0  0  0  0  0  0  0  0  0
   20.2018  -23.3607   -7.1780 I   0  0  0  0  0  0  0  0  0  0  0  0
   21.3979  -22.7368   -9.0386 C   0  0  0  0  0  0  0  0  0  0  0  0
   22.8156  -22.6689   -9.5237 C   0  0  0  0  0  0  0  0  0  0  0  0
   24.2334  -22.6010  -10.0089 C   0  0  0  0  0  0  0  0  0  0  0  0
   25.6987  -22.8186   -9.7735 C   0  0  0  0  0  0  0  0  0  0  0  0
   24.7085  -23.1538   -8.6979 C   0  0  0  0  0  0  0  0  0  0  0  0
   25.1836  -23.7065   -7.3868 C   0  0  0  0  0  0  0  0  0  0  0  0
   23.7658  -23.7744   -6.9018 O   0  0  0  0  0  0  0  0  0  0  0  0
   23.2908  -23.2217   -8.2128 C   0  0  0  0  0  0  0  0  0  0  0  0
   18.4854  -22.6795   -8.5460 C   0  0  0  0  0  0  0  0  0  0  0  0
   18.3758  -23.2154   -7.1493 N   0  0  0  0  0  0  0  0  0  0  0  0
   17.1392  -22.8168   -7.8988 C   0  0  0  0  0  0  0  0  0  0  0  0
   16.6140  -23.2885   -6.5753 C   0  0  0  0  0  0  0  0  0  0  0  0
   14.0682  -24.3215   -3.3705 C   0  0  0  0  0  0  0  0  0  0  0  0
   14.3833  -24.8782   -2.0137 C   0  0  0  0  0  0  0  0  0  0  0  0
   12.6017  -24.4363   -3.0771 C   0  0  0  0  0  0  0  0  0  0  0  0
   12.7875  -24.6009   -1.5977 C   0  0  0  0  0  0  0  0  0  0  0  0
   11.1147  -24.6486   -1.9671 C   0  0  0  0  0  0  0  0  0  0  0  0
   10.8103  -24.4927   -3.4275 C   0  0  0  0  0  0  0  0  0  0  0  0
   11.9281  -24.3153   -4.4119 C   0  0  0  0  0  0  0  0  0  0  0  0
   12.2325  -24.4713   -2.9514 C   0  0  0  0  0  0  0  0  0  0  0  0
   10.9065  -23.2188   -5.5006 H   0  0  0  0  0  0  0  0  0  0  0  0
   11.5410  -23.8968   -3.9041 H   0  0  0  0  0  0  0  0  0  0  0  0
   12.7879  -23.0063   -6.4573 H   0  0  0  0  0  0  0  0  0  0  0  0
   17.3269  -23.5274   -6.1199 H   0  0  0  0  0  0  0  0  0  0  0  0
   14.3766  -22.8285   -7.2621 H   0  0  0  0  0  0  0  0  0  0  0  0
   13.9785  -22.6785   -7.5590 H   0  0  0  0  0  0  0  0  0  0  0  0
   13.0441  -22.2166   -8.5370 H   0  0  0  0  0  0  0  0  0  0  0  0
   12.8144  -21.2546  -10.9506 H   0  0  0  0  0  0  0  0  0  0  0  0
   11.9586  -21.3874  -10.4257 H   0  0  0  0  0  0  0  0  0  0  0  0
   13.5935  -22.4179   -8.1385 H   0  0  0  0  0  0  0  0  0  0  0  0
   10.2803  -21.8092   -8.9737 H   0  0  0  0  0  0  0  0  0  0  0  0
   11.8284  -22.6818   -7.0784 H   0  0  0  0  0  0  0  0  0  0  0  0
   13.1656  -20.7758  -12.2539 H   0  0  0  0  0  0  0  0  0  0  0  0
   14.2383  -20.5119  -13.1655 H   0  0  0  0  0  0  0  0  0  0  0  0
   15.8000  -20.3526  -13.9163 H   0  0  0  0  0  0  0  0  0  0  0  0
   14.8729  -21.2942  -11.3010 H   0  0  0  0  0  0  0  0  0  0  0  0
   17.6913  -22.4416   -8.9809 H   0  0  0  0  0  0  0  0  0  0  0  0
   20.2692  -21.9033  -10.9256 H   0  0  0  0  0  0  0  0  0  0  0  0
   20.3752  -22.6041   -9.1540 H   0  0  0  0  0  0  0  0  0  0  0  0
   20.7280  -21.8202  -11.2393 H   0  0  0  0  0  0  0  0  0  0  0  0
   21.2218  -21.1346  -13.1037 H   0  0  0  0  0  0  0  0  0  0  0  0
   19.7549  -20.1729  -15.2447 H   0  0  0  0  0  0  0  0  0  0  0  0
   21.1724  -20.7070  -14.1880 H   0  0  0  0  0  0  0  0  0  0  0  0
   18.6424  -20.1627  -15.0267 H   0  0  0  0  0  0  0  0  0  0  0  0
   21.8728  -23.2921   -7.7286 H   0  0  0  0  0  0  0  0  0  0  0  0
   21.0993  -22.1774  -10.3980 H   0  0  0  0  0  0  0  0  0  0  0  0
   22.3405  -22.1162  -10.8348 H   0  0  0  0  0  0  0  0  0  0  0  0
   24.1414  -22.0495  -11.4008 H   0  0  0  0  0  0  0  0  0  0  0  0
   26.2461  -22.3515  -11.0897 H   0  0  0  0  0  0  0  0  0  0  0  0
   26.9740  -23.1984   -9.0811 H   0  0  0  0  0  0  0  0  0  0  0  0
   25.6587  -24.2593   -6.0759 H   0  0  0  0  0  0  0  0  0  0  0  0
   26.6013  -23.6387   -7.8720 H   0  0  0  0  0  0  0  0  0  0  0  0
   24.5514  -23.0220   -9.0007 H   0  0  0  0  0  0  0  0  0  0  0  0
   19.0266  -23.7549   -5.9102 H   0  0  0  0  0  0  0  0  0  0  0  0
   16.0888  -23.7602   -5.2518 H   0  0  0  0  0  0  0  0  0  0  0  0
   18.0708  -23.3360   -6.2213 H   0  0  0  0  0  0  0  0  0  0  0  0
   15.1571  -23.2410   -6.9293 H   0  0  0  0  0  0  0  0  0  0  0  0
   15.5348  -24.2067   -3.6639 H   0  0  0  0  0  0  0  0  0  0  0  0
   14.6984  -25.4349   -0.6569 H   0  0  0  0  0  0  0  0  0  0  0  0
   15.8447  -24.8748   -2.3516 H   0  0  0  0  0  0  0  0  0  0  0  0
   13.0416  -25.0163   -1.3576 H   0  0  0  0  0  0  0  0  0  0  0  0
   14.2208  -24.5748   -1.1561 H   0  0  0  0  0  0  0  0  0  0  0  0
   12.4538  -24.7905   -0.1477 H   0  0  0  0  0  0  0  0  0  0  0  0
    9.3880  -24.5141   -3.9036 H   0  0  0  0  0  0  0  0  0  0  0  0
   12.0396  -24.1338   -5.8966 H   0  0  0  0  0  0  0  0  0  0  0  0
   13.6548  -24.4499   -2.4752 H   0  0  0  0  0  0  0  0  0  0  0  0
  1  2  1  0
  2  3  2  0
  3  4  2  0
  4  5  1  0
  5  6  1  0
  6  7  1  0
  7  8  1  0
  8  9  1  0
  7 10  1  0
 10 11  1  0
 11 12  1  0
 12 13  1  0
 13 14  1  0
 14 15  1  0
 15 16  1  0
 16 17  1  0
 17 18  1  0
 18 19  1  0
 19 20  1  0
 20 21  1  0
 21 22  1  0
 22 23  1  0
 18 24  1  0
 24 25  1  0
 24 26  1  0
 26 27  1  0
 27 28  1  0
 28 29  1  0
 29 30  1  0
 30 31  1  0
 31 32  1  0
 32 33  1  0
 24 34  1  0
 34 35  1  0
 35 36  1  0
 36 37  1  0
  2 38  1  0
 38 39  1  0
 38 40  1  0
 40 41  1  0
 41 42  1  0
 42 43  1  0
 43 44  1  0
 44 45  1  0
 36  5  1  0
 42 40  1  0
 45 43  1  0
 22 12  1  0
 33 27  1  0
 36 34  1  0
 44 40  1  0
 23 12  1  0
 30 28  1  0
 45 42  1  0
 15 13  1  0
 34 18  1  0
 17 14  1  0
 23 19  1  0
 33 30  1  0
 17 15  1  0
 23 20  1  0
  1 46  1  0
  1 47  1  0
  1 48  1  0
  4 49  1  0
  5 50  1  0
  6 51  1  0
  6 52  1  0
  7 53  1  0
  8 54  1  0
  8 55  1  0
  9 56  1  0
  9 57  1  0
 10 58  1  0
 11 59  1  0
 11 60  1  0
 13 61  1  0
 14 62  1  0
 16 63  1  0
 16 64  1  0
 19 65  1  0
 20 66  1  0
 21 67  1  0
 21 68  1  0
 22 69  1  0
 26 70  1  0
 26 71  1  0
 27 72  1  0
 28 73  1  0
 29 74  1  0
 29 75  1  0
 31 76  1  0
 31 77  1  0
 33 78  1  0
 35 79  1  0
 37 80  1  0
 37 81  1  0
 37 82  1  0
 38 83  1  0
 39 84  1  0
 39 85  1  0
 39 86  1  0
 41 87  1  0
 41 88  1  0
 43 89  1  0
 44 90  1  0
 45 91  1  0
M  END
