
     RDKit          2D

104114  0  0  0  0  0  0  0  0999 V2000
   -8.6710   26.5121    3.7496 C   0  0  0  0  0  0  0  0  0  0  0  0
   -7.1872   26.2938    3.7776 N   0  0  0  0  0  0  0  0  0  0  0  0
   -6.5862   25.3547    4.7811 C   0  0  0  0  0  0  0  0  0  0  0  0
   -5.9852   24.4156    5.7845 C   0  0  0  0  0  0  0  0  0  0  0  0
   -6.8677   23.6960    6.7608 C   0  0  0  0  0  0  0  0  0  0  0  0
   -5.3840   23.4766    6.7879 C   0  0  0  0  0  0  0  0  0  0  0  0
   -4.7830   22.5375    7.7914 C   0  0  0  0  0  0  0  0  0  0  0  0
   -4.1820   21.5984    8.7948 C   0  0  0  0  0  0  0  0  0  0  0  0
   -3.5810   20.6594    9.7983 O   0  0  0  0  0  0  0  0  0  0  0  0
   -2.0974   20.4401    9.8256 C   0  0  0  0  0  0  0  0  0  0  0  0
   -0.6136   20.2209    9.8529 Cl  0  0  0  0  0  0  0  0  0  0  0  0
   -3.4153   23.0533    7.4549 C   0  0  0  0  0  0  0  0  0  0  0  0
   -2.0476   23.5691    7.1184 C   0  0  0  0  0  0  0  0  0  0  0  0
   -0.6799   24.0850    6.7818 C   0  0  0  0  0  0  0  0  0  0  0  0
   -2.6517   24.8523    6.6300 C   0  0  0  0  0  0  0  0  0  0  0  0
   -3.2558   26.1355    6.1416 C   0  0  0  0  0  0  0  0  0  0  0  0
   -3.8599   27.4187    5.6532 C   0  0  0  0  0  0  0  0  0  0  0  0
   -1.9864   26.4542    5.4087 C   0  0  0  0  0  0  0  0  0  0  0  0
   -1.8042   25.1354    6.0997 C   0  0  0  0  0  0  0  0  0  0  0  0
   -1.4061   23.8181    6.6967 C   0  0  0  0  0  0  0  0  0  0  0  0
   -0.0578   23.9321    6.0492 C   0  0  0  0  0  0  0  0  0  0  0  0
    1.8141   23.8357    5.2990 C   0  0  0  0  0  0  0  0  0  0  0  0
    2.4860   24.8477    4.4190 C   0  0  0  0  0  0  0  0  0  0  0  0
    3.7554   25.1665    3.6861 C   0  0  0  0  0  0  0  0  0  0  0  0
    3.3809   26.4855    3.0779 C   0  0  0  0  0  0  0  0  0  0  0  0
    3.0064   27.8045    2.4696 C   0  0  0  0  0  0  0  0  0  0  0  0
    3.1179   29.0751    1.6803 C   0  0  0  0  0  0  0  0  0  0  0  0
    4.2757   28.1231    1.7368 C   0  0  0  0  0  0  0  0  0  0  0  0
    5.2619   28.8615    0.8810 C   0  0  0  0  0  0  0  0  0  0  0  0
    5.0911   26.9148    2.0905 C   0  0  0  0  0  0  0  0  0  0  0  0
    4.5707   23.9581    4.0398 C   0  0  0  0  0  0  0  0  0  0  0  0
    5.8494   23.1800    3.9429 C   0  0  0  0  0  0  0  0  0  0  0  0
    7.1281   22.4019    3.8459 C   0  0  0  0  0  0  0  0  0  0  0  0
    7.7122   23.4708    2.9706 C   0  0  0  0  0  0  0  0  0  0  0  0
    7.5787   24.7856    2.2610 C   0  0  0  0  0  0  0  0  0  0  0  0
    6.4336   24.2489    3.0675 C   0  0  0  0  0  0  0  0  0  0  0  0
    5.1548   25.0270    3.1645 N   0  0  0  0  0  0  0  0  0  0  0  0
    2.3037   26.1667    3.7280 N   0  0  0  0  0  0  0  0  0  0  0  0
    1.3369   27.2885    3.4900 C   0  0  0  0  0  0  0  0  0  0  0  0
    0.0399   27.1694    4.1183 C   0  0  0  0  0  0  0  0  0  0  0  0
   -1.3145   27.4662    4.5288 C   0  0  0  0  0  0  0  0  0  0  0  0
   -0.4007   28.2793    3.6606 N   0  0  0  0  0  0  0  0  0  0  0  0
    0.0675   26.9699    4.2229 C   0  0  0  0  0  0  0  0  0  0  0  0
   -0.4559   25.2494    5.4522 O   0  0  0  0  0  0  0  0  0  0  0  0
   -4.5016   24.1962    5.8116 C   0  0  0  0  0  0  0  0  0  0  0  0
  -10.1548   26.7305    3.7215 H   0  0  0  0  0  0  0  0  0  0  0  0
   -8.5081   27.4724    2.6089 H   0  0  0  0  0  0  0  0  0  0  0  0
   -8.8339   25.5518    4.8903 H   0  0  0  0  0  0  0  0  0  0  0  0
   -6.3045   27.0145    2.8022 H   0  0  0  0  0  0  0  0  0  0  0  0
   -6.3382   26.3706    5.8564 H   0  0  0  0  0  0  0  0  0  0  0  0
   -6.7623   24.2159    3.8208 H   0  0  0  0  0  0  0  0  0  0  0  0
   -8.2063   24.2297    6.3444 H   0  0  0  0  0  0  0  0  0  0  0  0
   -7.2854   22.7910    7.8818 H   0  0  0  0  0  0  0  0  0  0  0  0
   -6.1508   22.0217    8.1279 H   0  0  0  0  0  0  0  0  0  0  0  0
   -2.9217   21.8826    8.0327 H   0  0  0  0  0  0  0  0  0  0  0  0
   -2.7752   21.6537    8.2773 H   0  0  0  0  0  0  0  0  0  0  0  0
   -2.2598   19.4825   10.9686 H   0  0  0  0  0  0  0  0  0  0  0  0
   -1.9348   21.3978    8.6825 H   0  0  0  0  0  0  0  0  0  0  0  0
   -2.9822   21.7178    7.9830 H   0  0  0  0  0  0  0  0  0  0  0  0
   -2.6488   21.8436    7.9009 H   0  0  0  0  0  0  0  0  0  0  0  0
   -1.6148   22.2327    7.6441 H   0  0  0  0  0  0  0  0  0  0  0  0
    0.7934   24.2752    6.5740 H   0  0  0  0  0  0  0  0  0  0  0  0
   -0.0756   22.8028    7.2724 H   0  0  0  0  0  0  0  0  0  0  0  0
   -1.4464   25.2948    6.3360 H   0  0  0  0  0  0  0  0  0  0  0  0
   -3.7169   23.8690    7.0152 H   0  0  0  0  0  0  0  0  0  0  0  0
   -1.2154   25.2524    6.4660 H   0  0  0  0  0  0  0  0  0  0  0  0
   -4.6574   26.2979    6.6507 H   0  0  0  0  0  0  0  0  0  0  0  0
   -4.4640   28.7019    5.1648 H   0  0  0  0  0  0  0  0  0  0  0  0
   -5.1444   26.7474    6.0399 H   0  0  0  0  0  0  0  0  0  0  0  0
   -2.5755   28.0900    5.2665 H   0  0  0  0  0  0  0  0  0  0  0  0
   -2.8216   27.6530    5.0691 H   0  0  0  0  0  0  0  0  0  0  0  0
   -3.1649   25.7159    6.3472 H   0  0  0  0  0  0  0  0  0  0  0  0
   -0.8466   22.5246    7.2103 H   0  0  0  0  0  0  0  0  0  0  0  0
   -2.5220   23.2395    7.5151 H   0  0  0  0  0  0  0  0  0  0  0  0
    1.1771   23.0813    6.0136 H   0  0  0  0  0  0  0  0  0  0  0  0
    3.0927   23.0576    5.2020 H   0  0  0  0  0  0  0  0  0  0  0  0
    1.9964   22.5168    5.9899 H   0  0  0  0  0  0  0  0  0  0  0  0
    3.4528   23.7259    4.6570 H   0  0  0  0  0  0  0  0  0  0  0  0
    4.7873   26.2560    2.6095 H   0  0  0  0  0  0  0  0  0  0  0  0
    1.9744   26.7149    3.5463 H   0  0  0  0  0  0  0  0  0  0  0  0
    1.6161   28.2579    2.8041 H   0  0  0  0  0  0  0  0  0  0  0  0
    1.7571   29.6558    1.9278 H   0  0  0  0  0  0  0  0  0  0  0  0
    3.5417   30.2309    0.8233 H   0  0  0  0  0  0  0  0  0  0  0  0
    6.2480   29.6000    0.0253 H   0  0  0  0  0  0  0  0  0  0  0  0
    4.3895   30.0425    0.5742 H   0  0  0  0  0  0  0  0  0  0  0  0
    6.3747   27.8606    0.9792 H   0  0  0  0  0  0  0  0  0  0  0  0
    5.9065   25.7065    2.4442 H   0  0  0  0  0  0  0  0  0  0  0  0
    6.3266   27.2994    1.3319 H   0  0  0  0  0  0  0  0  0  0  0  0
    4.0543   26.2355    2.9353 H   0  0  0  0  0  0  0  0  0  0  0  0
    3.9644   22.9029    4.9167 H   0  0  0  0  0  0  0  0  0  0  0  0
    5.2653   22.1111    4.8182 H   0  0  0  0  0  0  0  0  0  0  0  0
    8.4069   21.6237    3.7489 H   0  0  0  0  0  0  0  0  0  0  0  0
    6.5440   21.3329    4.7213 H   0  0  0  0  0  0  0  0  0  0  0  0
    9.0986   22.9959    2.6503 H   0  0  0  0  0  0  0  0  0  0  0  0
    8.9337   24.8766    1.6240 H   0  0  0  0  0  0  0  0  0  0  0  0
    6.9746   26.0687    1.7726 H   0  0  0  0  0  0  0  0  0  0  0  0
    3.2722   26.9241    2.8688 H   0  0  0  0  0  0  0  0  0  0  0  0
    1.8532   28.3967    2.6210 H   0  0  0  0  0  0  0  0  0  0  0  0
   -0.7363   29.0428    3.3598 H   0  0  0  0  0  0  0  0  0  0  0  0
    0.6267   28.7970    2.9159 H   0  0  0  0  0  0  0  0  0  0  0  0
   -0.1432   29.5047    2.8347 H   0  0  0  0  0  0  0  0  0  0  0  0
    0.9242   27.8364    3.3482 H   0  0  0  0  0  0  0  0  0  0  0  0
   -3.3625   23.4787    6.4733 H   0  0  0  0  0  0  0  0  0  0  0  0
   -4.2616   25.1410    4.6716 H   0  0  0  0  0  0  0  0  0  0  0  0
  1  2  1  0
  2  3  1  0
  3  4  1  0
  4  5  1  0
  5  6  1  0
  6  7  1  0
  7  8  1  0
  8  9  1  0
  9 10  1  0
 10 11  1  0
  7 12  1  0
 12 13  1  0
 13 14  1  0
 13 15  1  0
 15 16  1  0
 16 17  1  0
 16 18  1  0
 18 19  1  0
 19 20  1  0
 20 21  1  0
 21 22  1  0
 22 23  1  0
 23 24  1  0
 24 25  1  0
 25 26  1  0
 26 27  1  0
 27 28  1  0
 28 29  1  0
 28 30  1  0
 24 31  1  0
 31 32  1  0
 32 33  1  0
 33 34  1  0
 34 35  1  0
 35 36  1  0
 36 37  1  0
 23 38  1  0
 38 39  1  0
 39 40  1  0
 40 41  1  0
 41 42  1  0
 42 43  1  0
 21 44  1  0
  6 45  1  0
  6  4  1  0
 41 18  1  0
 45  4  1  0
 44 19  1  0
 37 24  1  0
 43 39  1  0
 28 26  1  0
 37 31  1  0
 43 41  1  0
 36 32  1  0
 36 34  1  0
  1 46  1  0
  1 47  1  0
  1 48  1  0
  2 49  1  0
  3 50  1  0
  3 51  1  0
  5 52  1  0
  5 53  1  0
  7 54  1  0
  8 55  1  0
  8 56  1  0
 10 57  1  0
 10 58  1  0
 12 59  1  0
 12 60  1  0
 13 61  1  0
 14 62  1  0
 14 63  1  0
 14 64  1  0
 15 65  1  0
 15 66  1  0
 16 67  1  0
 17 68  1  0
 17 69  1  0
 17 70  1  0
 18 71  1  0
 19 72  1  0
 20 73  1  0
 20 74  1  0
 21 75  1  0
 22 76  1  0
 22 77  1  0
 23 78  1  0
 25 79  1  0
 25 80  1  0
 26 81  1  0
 27 82  1  0
 27 83  1  0
 29 84  1  0
 29 85  1  0
 29 86  1  0
 30 87  1  0
 30 88  1  0
 30 89  1  0
 31 90  1  0
 32 91  1  0
 33 92  1  0
 33 93  1  0
 34 94  1  0
 35 95  1  0
 35 96  1  0
 38 97  1  0
 39 98  1  0
 40 99  1  0
 40100  1  0
 42101  1  0
 43102  1  0
 45103  1  0
 45104  1  0
M  END
