
     RDKit          2D

 54 61  0  0  0  0  0  0  0  0999 V2000
   20.9088  -16.9086   -2.2120 C   0  0  0  0  0  0  0  0  0  0  0  0
   20.0353  -17.8275   -3.0136 C   0  0  0  0  0  0  0  0  0  0  0  0
   19.1618  -18.7464   -3.8152 C   0  0  0  0  0  0  0  0  0  0  0  0
   18.2882  -19.6653   -4.6167 C   0  0  0  0  0  0  0  0  0  0  0  0
   17.4147  -20.5842   -5.4183 C   0  0  0  0  0  0  0  0  0  0  0  0
   16.5412  -21.5031   -6.2199 C   0  0  0  0  0  0  0  0  0  0  0  0
   15.6676  -22.4220   -7.0215 C   0  0  0  0  0  0  0  0  0  0  0  0
   16.7020  -23.0695   -7.8938 C   0  0  0  0  0  0  0  0  0  0  0  0
   15.2586  -23.4549   -8.0294 C   0  0  0  0  0  0  0  0  0  0  0  0
   16.2929  -24.1025   -8.9017 C   0  0  0  0  0  0  0  0  0  0  0  0
   15.4194  -25.0213   -9.7032 N   0  0  0  0  0  0  0  0  0  0  0  0
   13.9397  -25.0517   -9.4594 C   0  0  0  0  0  0  0  0  0  0  0  0
   12.4599  -25.0820   -9.2155 N   0  0  0  0  0  2  0  0  0  0  0  0
   13.7852  -26.0945  -10.5264 S   0  0  0  0  0  1  0  0  0  0  0  0
   17.6307  -24.4308   -9.4955 C   0  0  0  0  0  0  0  0  0  0  0  0
   18.6650  -25.0784  -10.3678 N   0  0  0  0  0  0  0  0  0  0  0  0
   18.2560  -26.1114  -11.3757 C   0  0  0  0  0  0  0  0  0  0  0  0
   16.8127  -26.4968  -11.5112 C   0  0  0  0  0  0  0  0  0  0  0  0
   17.2217  -25.4638  -10.5034 C   0  0  0  0  0  0  0  0  0  0  0  0
   16.4673  -20.6936   -4.2605 N   0  0  0  0  0  0  0  0  0  0  0  0
   15.0979  -20.9925   -3.7263 C   0  0  0  0  0  0  0  0  0  0  0  0
   16.1958  -20.5841   -2.7894 C   0  0  0  0  0  0  0  0  0  0  0  0
   15.4535  -20.6209   -1.4865 N   0  0  0  0  0  0  0  0  0  0  0  0
   14.1877  -20.8634   -0.7189 C   0  0  0  0  0  0  0  0  0  0  0  0
   14.1677  -20.6847    0.7702 N   0  0  0  0  0  0  0  0  0  0  0  0
   15.4335  -20.4422    0.0027 C   0  0  0  0  0  0  0  0  0  0  0  0
   21.7824  -15.9898   -1.4104 H   0  0  0  0  0  0  0  0  0  0  0  0
   19.7041  -16.4100   -1.4705 H   0  0  0  0  0  0  0  0  0  0  0  0
   22.1137  -17.4072   -2.9534 H   0  0  0  0  0  0  0  0  0  0  0  0
   19.0254  -17.8350   -1.9045 H   0  0  0  0  0  0  0  0  0  0  0  0
   21.0452  -17.8200   -4.1226 H   0  0  0  0  0  0  0  0  0  0  0  0
   17.9578  -18.2527   -3.0691 H   0  0  0  0  0  0  0  0  0  0  0  0
   20.3658  -19.2401   -4.5613 H   0  0  0  0  0  0  0  0  0  0  0  0
   19.4928  -20.1617   -5.3603 H   0  0  0  0  0  0  0  0  0  0  0  0
   17.0837  -19.1688   -3.8732 H   0  0  0  0  0  0  0  0  0  0  0  0
   18.3621  -20.4748   -6.5761 H   0  0  0  0  0  0  0  0  0  0  0  0
   17.4945  -21.4030   -7.3736 H   0  0  0  0  0  0  0  0  0  0  0  0
   15.5878  -21.6031   -5.0663 H   0  0  0  0  0  0  0  0  0  0  0  0
   14.3299  -22.0936   -6.4276 H   0  0  0  0  0  0  0  0  0  0  0  0
   18.1452  -22.6841   -7.7583 H   0  0  0  0  0  0  0  0  0  0  0  0
   14.1822  -23.6476   -8.0310 H   0  0  0  0  0  0  0  0  0  0  0  0
   16.0256  -25.9099  -10.7487 H   0  0  0  0  0  0  0  0  0  0  0  0
   13.9200  -24.2998   -8.6656 H   0  0  0  0  0  0  0  0  0  0  0  0
   11.5864  -26.0009  -10.0171 H   0  0  0  0  0  0  0  0  0  0  0  0
   18.5042  -23.5119   -8.6939 H   0  0  0  0  0  0  0  0  0  0  0  0
   19.2903  -26.7589  -12.2480 H   0  0  0  0  0  0  0  0  0  0  0  0
   16.9176  -27.5192  -12.6038 H   0  0  0  0  0  0  0  0  0  0  0  0
   15.3329  -26.5271  -11.2673 H   0  0  0  0  0  0  0  0  0  0  0  0
   14.3902  -21.3388   -5.0027 H   0  0  0  0  0  0  0  0  0  0  0  0
   13.9743  -21.1711   -2.7488 H   0  0  0  0  0  0  0  0  0  0  0  0
   17.5516  -20.1629   -2.3049 H   0  0  0  0  0  0  0  0  0  0  0  0
   12.9420  -21.2846   -1.4405 H   0  0  0  0  0  0  0  0  0  0  0  0
   13.4254  -20.7215    2.0732 H   0  0  0  0  0  0  0  0  0  0  0  0
   16.6792  -20.0211    0.7244 H   0  0  0  0  0  0  0  0  0  0  0  0
  1  2  1  0
  2  3  1  0
  3  4  1  0
  4  5  1  0
  5  6  1  0
  6  7  1  0
  7  8  1  0
  8  9  1  0
  9 10  1  0
 10 11  1  0
 11 12  1  0
 12 13  1  0
 12 14  1  0
 10 15  1  0
 15 16  1  0
 16 17  1  0
 17 18  1  0
 18 19  1  0
  5 20  1  0
 20 21  1  0
 21 22  1  0
 22 23  1  0
 23 24  1  0
 24 25  1  0
 25 26  1  0
  9  7  1  0
 19 15  1  0
 22 20  1  0
 26 23  1  0
 10  8  1  0
 19 16  1  0
 26 24  1  0
 19 17  1  0
  1 27  1  0
  1 28  1  0
  1 29  1  0
  2 30  1  0
  2 31  1  0
  3 32  1  0
  3 33  1  0
  4 34  1  0
  4 35  1  0
  5 36  1  0
  6 37  1  0
  6 38  1  0
  7 39  1  0
  8 40  1  0
  9 41  1  0
 11 42  1  0
 12 43  1  0
 13 44  1  0
 15 45  1  0
 17 46  1  0
 18 47  1  0
 18 48  1  0
 21 49  1  0
 21 50  1  0
 22 51  1  0
 24 52  1  0
 25 53  1  0
 26 54  1  0
M  RAD  2  13   2  14   2
M  END
