
     RDKit          2D

102110  0  0  0  0  0  0  0  0999 V2000
   12.3491  -23.3747  -15.0332 C   0  0  0  0  0  0  0  0  0  0  0  0
   13.2618  -22.2284  -14.7124 C   0  0  0  0  0  0  0  0  0  0  0  0
   13.6713  -21.9703  -13.2926 C   0  0  0  0  0  0  0  0  0  0  0  0
   13.1123  -22.9167  -12.2718 C   0  0  0  0  0  0  0  0  0  0  0  0
   13.3295  -22.9264  -10.7877 C   0  0  0  0  0  0  0  0  0  0  0  0
   14.1594  -21.9923   -9.9578 C   0  0  0  0  0  0  0  0  0  0  0  0
   13.6004  -22.9386   -8.9369 O   0  0  0  0  0  0  0  0  0  0  0  0
   13.9476  -22.7690   -7.4875 C   0  0  0  0  0  0  0  0  0  0  0  0
   14.9769  -20.8177  -10.4071 C   0  0  0  0  0  0  0  0  0  0  0  0
   15.8715  -19.7384   -9.8732 C   0  0  0  0  0  0  0  0  0  0  0  0
   16.3699  -19.3505   -8.5126 C   0  0  0  0  0  0  0  0  0  0  0  0
   16.8682  -18.9625   -7.1520 C   0  0  0  0  0  0  0  0  0  0  0  0
   17.3667  -18.5745   -5.7915 C   0  0  0  0  0  0  0  0  0  0  0  0
   17.8651  -18.1865   -4.4309 C   0  0  0  0  0  0  0  0  0  0  0  0
   18.3635  -17.7986   -3.0704 C   0  0  0  0  0  0  0  0  0  0  0  0
   17.6951  -18.8522   -2.2379 C   0  0  0  0  0  0  0  0  0  0  0  0
   19.0940  -17.0446   -1.9990 C   0  0  0  0  0  0  0  0  0  0  0  0
   19.2049  -16.6102   -3.4304 C   0  0  0  0  0  0  0  0  0  0  0  0
   16.3005  -20.7845   -8.0782 C   0  0  0  0  0  0  0  0  0  0  0  0
   16.4058  -21.9994   -7.2047 C   0  0  0  0  0  0  0  0  0  0  0  0
   16.7793  -20.6514   -6.6630 N   0  0  0  0  0  0  0  0  0  0  0  0
   17.2805  -19.9509   -5.4349 F   0  0  0  0  0  0  0  0  0  0  0  0
   16.3769  -18.8543  -10.9382 C   0  0  0  0  0  0  0  0  0  0  0  0
   17.5724  -17.5259   -9.6563 C   0  0  0  0  0  0  0  0  0  0  0  0
   16.9447  -17.9305  -11.7884 C   0  0  0  0  0  0  0  0  0  0  0  0
   16.9031  -17.7942  -12.7421 C   0  0  0  0  0  0  0  0  0  0  0  0
   18.1825  -16.1575  -12.4422 O   0  0  0  0  0  0  0  0  0  0  0  0
   17.6849  -16.4704  -14.1712 C   0  0  0  0  0  0  0  0  0  0  0  0
   18.0849  -15.6949  -15.3912 O   0  0  0  0  0  0  0  0  0  0  0  0
   18.9970  -14.5111  -15.2618 O   0  0  0  0  0  0  0  0  0  0  0  0
   19.3971  -13.7356  -16.4818 C   0  0  0  0  0  0  0  0  0  0  0  0
   16.4591  -18.2359  -13.4753 C   0  0  0  0  0  0  0  0  0  0  0  0
   15.6821  -19.1168  -14.2212 C   0  0  0  0  0  0  0  0  0  0  0  0
   14.8701  -20.0163  -15.1054 C   0  0  0  0  0  0  0  0  0  0  0  0
   14.0351  -21.2013  -14.7197 C   0  0  0  0  0  0  0  0  0  0  0  0
   16.5172  -17.9319  -14.6064 N   0  0  0  0  0  0  0  0  0  0  0  0
   17.1294  -17.3706  -13.3573 C   0  0  0  0  0  0  0  0  0  0  0  0
   17.7409  -16.3715  -14.2943 C   0  0  0  0  0  0  0  0  0  0  0  0
   16.6726  -18.2087  -12.2002 C   0  0  0  0  0  0  0  0  0  0  0  0
   15.7781  -19.2880  -12.7341 C   0  0  0  0  0  0  0  0  0  0  0  0
   15.1666  -20.2871  -11.7972 C   0  0  0  0  0  0  0  0  0  0  0  0
   14.5855  -20.8001  -13.0814 C   0  0  0  0  0  0  0  0  0  0  0  0
   15.4031  -19.6255  -13.5307 O   0  0  0  0  0  0  0  0  0  0  0  0
   16.1665  -18.8147  -12.5258 C   0  0  0  0  0  0  0  0  0  0  0  0
   16.0611  -19.2078  -11.2633 C   0  0  0  0  0  0  0  0  0  0  0  0
   11.9396  -23.6328  -16.4529 H   0  0  0  0  0  0  0  0  0  0  0  0
   11.8457  -24.2629  -13.9342 H   0  0  0  0  0  0  0  0  0  0  0  0
   13.6683  -21.4457  -15.9257 H   0  0  0  0  0  0  0  0  0  0  0  0
   12.5312  -23.4296  -13.5560 H   0  0  0  0  0  0  0  0  0  0  0  0
   12.2509  -24.1139  -11.9990 H   0  0  0  0  0  0  0  0  0  0  0  0
   12.4238  -24.1217  -10.8176 H   0  0  0  0  0  0  0  0  0  0  0  0
   12.9291  -23.7023   -9.5680 H   0  0  0  0  0  0  0  0  0  0  0  0
   14.8222  -21.3505   -8.7750 H   0  0  0  0  0  0  0  0  0  0  0  0
   14.1891  -22.7458   -6.0073 H   0  0  0  0  0  0  0  0  0  0  0  0
   13.1017  -23.9596   -7.1456 H   0  0  0  0  0  0  0  0  0  0  0  0
   14.8296  -21.5665   -7.6502 H   0  0  0  0  0  0  0  0  0  0  0  0
   15.0934  -20.9620   -8.9186 H   0  0  0  0  0  0  0  0  0  0  0  0
   16.4995  -17.8798   -8.7778 H   0  0  0  0  0  0  0  0  0  0  0  0
   16.2470  -19.9745   -6.2357 H   0  0  0  0  0  0  0  0  0  0  0  0
   17.6329  -17.8227   -7.7571 H   0  0  0  0  0  0  0  0  0  0  0  0
   18.1369  -17.4388   -6.3974 H   0  0  0  0  0  0  0  0  0  0  0  0
   16.6630  -19.6544   -5.0241 H   0  0  0  0  0  0  0  0  0  0  0  0
   17.0448  -19.3646   -3.9961 H   0  0  0  0  0  0  0  0  0  0  0  0
   18.5639  -17.1029   -5.1976 H   0  0  0  0  0  0  0  0  0  0  0  0
   17.0267  -19.9059   -1.4055 H   0  0  0  0  0  0  0  0  0  0  0  0
   18.2581  -18.4244   -0.9150 H   0  0  0  0  0  0  0  0  0  0  0  0
   16.9692  -19.5368   -3.3578 H   0  0  0  0  0  0  0  0  0  0  0  0
   18.7817  -17.7202   -0.6966 H   0  0  0  0  0  0  0  0  0  0  0  0
   19.9686  -16.0157   -1.3459 H   0  0  0  0  0  0  0  0  0  0  0  0
   20.1181  -15.4303   -3.2744 H   0  0  0  0  0  0  0  0  0  0  0  0
   19.1089  -16.4390   -4.9175 H   0  0  0  0  0  0  0  0  0  0  0  0
   15.7977  -21.4156   -9.3427 H   0  0  0  0  0  0  0  0  0  0  0  0
   15.9991  -23.2747   -7.8817 H   0  0  0  0  0  0  0  0  0  0  0  0
   16.7230  -22.6936   -5.9134 H   0  0  0  0  0  0  0  0  0  0  0  0
   16.7989  -18.6777   -9.0292 H   0  0  0  0  0  0  0  0  0  0  0  0
   18.3946  -16.6068   -8.8024 H   0  0  0  0  0  0  0  0  0  0  0  0
   17.2755  -18.1836   -8.3413 H   0  0  0  0  0  0  0  0  0  0  0  0
   18.0697  -16.6441  -10.7632 H   0  0  0  0  0  0  0  0  0  0  0  0
   18.2632  -16.3030  -11.1837 H   0  0  0  0  0  0  0  0  0  0  0  0
   18.0989  -16.6715  -10.4335 H   0  0  0  0  0  0  0  0  0  0  0  0
   18.9311  -15.0335  -13.0952 H   0  0  0  0  0  0  0  0  0  0  0  0
   18.5071  -15.5513  -13.3174 H   0  0  0  0  0  0  0  0  0  0  0  0
   16.9839  -17.1747  -15.2950 H   0  0  0  0  0  0  0  0  0  0  0  0
   19.7972  -12.9601  -17.7018 H   0  0  0  0  0  0  0  0  0  0  0  0
   20.2242  -12.8201  -15.6286 H   0  0  0  0  0  0  0  0  0  0  0  0
   18.5701  -14.6511  -17.3349 H   0  0  0  0  0  0  0  0  0  0  0  0
   16.4033  -17.8878  -15.5789 H   0  0  0  0  0  0  0  0  0  0  0  0
   16.8144  -17.3658  -15.4627 H   0  0  0  0  0  0  0  0  0  0  0  0
   15.4608  -19.0379  -16.0769 H   0  0  0  0  0  0  0  0  0  0  0  0
   14.4142  -20.3417  -16.4969 H   0  0  0  0  0  0  0  0  0  0  0  0
   13.8577  -21.1379  -16.2079 H   0  0  0  0  0  0  0  0  0  0  0  0
   13.1547  -22.2441  -15.3423 H   0  0  0  0  0  0  0  0  0  0  0  0
   16.4848  -17.6782  -16.0844 H   0  0  0  0  0  0  0  0  0  0  0  0
   18.0127  -16.3206  -12.7514 H   0  0  0  0  0  0  0  0  0  0  0  0
   18.1697  -15.5641  -15.4834 H   0  0  0  0  0  0  0  0  0  0  0  0
   18.6282  -15.3114  -13.7123 H   0  0  0  0  0  0  0  0  0  0  0  0
   17.3254  -16.6383  -15.7106 H   0  0  0  0  0  0  0  0  0  0  0  0
   17.4726  -17.3317  -11.2832 H   0  0  0  0  0  0  0  0  0  0  0  0
   14.5896  -20.4996  -14.5510 H   0  0  0  0  0  0  0  0  0  0  0  0
   17.0805  -17.6410  -12.3332 H   0  0  0  0  0  0  0  0  0  0  0  0
   16.6698  -17.9264  -13.6248 H   0  0  0  0  0  0  0  0  0  0  0  0
   15.8628  -19.4803  -11.2163 H   0  0  0  0  0  0  0  0  0  0  0  0
  1  2  2  3
  2  3  1  0
  3  4  1  0
  4  5  1  0
  5  6  1  0
  6  7  1  0
  7  8  1  0
  6  9  1  0
  9 10  1  0
 10 11  1  0
 11 12  1  0
 12 13  1  0
 13 14  1  0
 14 15  1  0
 15 16  1  0
 15 17  1  0
 17 18  1  0
 11 19  1  0
 19 20  1  0
 20 21  1  0
 21 22  1  0
 10 23  1  0
 23 24  1  0
 23 25  1  0
 25 26  1  0
 26 27  1  0
 26 28  1  0
 28 29  1  0
 29 30  1  0
 30 31  1  0
 26 32  1  0
 32 33  1  0
 33 34  1  0
 34 35  1  0
 33 36  1  0
 36 37  1  0
 37 38  1  0
 37 39  1  0
 39 40  1  0
 40 41  1  0
 41 42  1  0
 42 43  1  0
 43 44  1  0
 41 45  1  0
 35  3  1  0
 45 39  1  0
 42  3  1  0
 41  9  1  0
 45 10  1  0
 18 15  1  0
 21 19  1  0
 40 33  1  0
 45 40  1  0
  1 46  1  0
  1 47  1  0
  2 48  1  0
  4 49  1  0
  4 50  1  0
  5 51  1  0
  5 52  1  0
  6 53  1  0
  8 54  1  0
  8 55  1  0
  8 56  1  0
  9 57  1  0
 11 58  1  0
 12 59  1  0
 12 60  1  0
 13 61  1  0
 13 62  1  0
 14 63  1  0
 14 64  1  0
 16 65  1  0
 16 66  1  0
 16 67  1  0
 17 68  1  0
 17 69  1  0
 18 70  1  0
 18 71  1  0
 19 72  1  0
 20 73  1  0
 20 74  1  0
 23 75  1  0
 24 76  1  0
 24 77  1  0
 24 78  1  0
 25 79  1  0
 25 80  1  0
 27 81  1  0
 28 82  1  0
 28 83  1  0
 31 84  1  0
 31 85  1  0
 31 86  1  0
 32 87  1  0
 32 88  1  0
 34 89  1  0
 34 90  1  0
 35 91  1  0
 35 92  1  0
 36 93  1  0
 37 94  1  0
 38 95  1  0
 38 96  1  0
 38 97  1  0
 39 98  1  0
 42 99  1  0
 44100  1  0
 44101  1  0
 44102  1  0
M  END
