
     RDKit          2D

 35 36  0  0  0  0  0  0  0  0999 V2000
   -1.9144   24.9012    7.2338 C   0  0  0  0  0  0  0  0  0  0  0  0
   -0.6835   25.1092    6.4020 C   0  0  0  0  0  0  0  0  0  0  0  0
    0.5473   25.3172    5.5703 C   0  0  0  0  0  0  0  0  0  0  0  0
    1.7781   25.5253    4.7385 C   0  0  0  0  0  0  0  0  0  0  0  0
    3.0089   25.7333    3.9067 C   0  0  0  0  0  0  0  0  0  0  0  0
    4.4585   25.8069    3.5282 C   0  0  0  0  0  0  0  0  0  0  0  0
    4.0663   25.4184    4.9230 C   0  0  0  0  0  0  0  0  0  0  0  0
   -1.5402   25.4661    5.2236 C   0  0  0  0  0  0  0  0  0  0  0  0
   -2.7661   25.7298    4.4005 C   0  0  0  0  0  0  0  0  0  0  0  0
   -2.9011   25.3218    5.8376 N   0  0  0  0  0  0  0  0  0  0  0  0
   -3.7647   25.0028    7.0219 C   0  0  0  0  0  0  0  0  0  0  0  0
   -4.6283   24.6839    8.2061 C   0  0  0  0  0  0  0  0  0  0  0  0
   -5.4919   24.3649    9.3904 N   0  0  0  0  0  0  0  0  0  0  0  0
   -2.6190   24.8145    7.5961 H   0  0  0  0  0  0  0  0  0  0  0  0
   -1.5994   24.6672    8.0279 H   0  0  0  0  0  0  0  0  0  0  0  0
   -2.7710   25.2576    6.0552 H   0  0  0  0  0  0  0  0  0  0  0  0
    0.1732   24.7523    7.5804 H   0  0  0  0  0  0  0  0  0  0  0  0
    1.4040   24.9600    6.7486 H   0  0  0  0  0  0  0  0  0  0  0  0
    0.0368   25.5942    4.6437 H   0  0  0  0  0  0  0  0  0  0  0  0
    2.4082   25.1815    5.8818 H   0  0  0  0  0  0  0  0  0  0  0  0
    0.9214   25.8846    3.5608 H   0  0  0  0  0  0  0  0  0  0  0  0
    2.3790   26.1205    2.6017 H   0  0  0  0  0  0  0  0  0  0  0  0
    4.3320   26.2196    2.0917 H   0  0  0  0  0  0  0  0  0  0  0  0
    5.9521   25.7371    3.6487 H   0  0  0  0  0  0  0  0  0  0  0  0
    5.4236   25.2137    5.5277 H   0  0  0  0  0  0  0  0  0  0  0  0
    3.4294   25.1060    6.0715 H   0  0  0  0  0  0  0  0  0  0  0  0
   -0.8647   25.6883    4.3928 H   0  0  0  0  0  0  0  0  0  0  0  0
   -2.1286   26.0897    3.0913 H   0  0  0  0  0  0  0  0  0  0  0  0
   -4.2136   25.8686    4.0321 H   0  0  0  0  0  0  0  0  0  0  0  0
   -3.1784   24.9565    7.5600 H   0  0  0  0  0  0  0  0  0  0  0  0
   -4.9823   25.0515    6.1471 H   0  0  0  0  0  0  0  0  0  0  0  0
   -5.7578   24.3262    7.2862 H   0  0  0  0  0  0  0  0  0  0  0  0
   -3.4989   25.0415    9.1262 H   0  0  0  0  0  0  0  0  0  0  0  0
   -6.9855   24.4338    9.2697 H   0  0  0  0  0  0  0  0  0  0  0  0
   -4.8620   23.9770   10.6953 H   0  0  0  0  0  0  0  0  0  0  0  0
  1  2  1  0
  2  3  1  0
  3  4  1  0
  4  5  1  0
  5  6  1  0
  6  7  1  0
  2  8  1  0
  8  9  1  0
  9 10  1  0
 10 11  1  0
 11 12  1  0
 12 13  1  0
  7  5  1  0
 10  8  1  0
  1 14  1  0
  1 15  1  0
  1 16  1  0
  2 17  1  0
  3 18  1  0
  3 19  1  0
  4 20  1  0
  4 21  1  0
  5 22  1  0
  6 23  1  0
  6 24  1  0
  7 25  1  0
  7 26  1  0
  8 27  1  0
  9 28  1  0
  9 29  1  0
 11 30  1  0
 11 31  1  0
 12 32  1  0
 12 33  1  0
 13 34  1  0
 13 35  1  0
M  END
