
     RDKit          2D

 49 51  0  0  0  0  0  0  0  0999 V2000
   16.5292  -25.4695   -9.0213 C   0  0  0  0  0  0  0  0  0  0  0  0
   16.8857  -24.2147   -8.2808 C   0  0  0  0  0  0  0  0  0  0  0  0
   18.1500  -23.4801   -8.6152 C   0  0  0  0  0  0  0  0  0  0  0  0
   19.4144  -22.7454   -8.9495 C   0  0  0  0  0  0  0  0  0  0  0  0
   19.7709  -21.4906   -8.2090 O   0  0  0  0  0  0  0  0  0  0  0  0
   20.3221  -23.2655  -10.0244 O   0  0  0  0  0  0  0  0  0  0  0  0
   21.5864  -22.5309  -10.3587 C   0  0  0  0  0  0  0  0  0  0  0  0
   15.9779  -23.6946   -7.2058 C   0  0  0  0  0  0  0  0  0  0  0  0
   17.0922  -22.6905   -7.2165 C   0  0  0  0  0  0  0  0  0  0  0  0
   17.2579  -21.4682   -6.3629 C   0  0  0  0  0  0  0  0  0  0  0  0
   16.3501  -20.9480   -5.2880 C   0  0  0  0  0  0  0  0  0  0  0  0
   15.0525  -21.5218   -4.8012 C   0  0  0  0  0  0  0  0  0  0  0  0
   14.3422  -22.7573   -5.2690 C   0  0  0  0  0  0  0  0  0  0  0  0
   13.0384  -23.2281   -4.6957 C   0  0  0  0  0  0  0  0  0  0  0  0
   13.1653  -22.0156   -3.8218 C   0  0  0  0  0  0  0  0  0  0  0  0
   12.1050  -21.7088   -2.8060 C   0  0  0  0  0  0  0  0  0  0  0  0
   12.2319  -20.4963   -1.9321 C   0  0  0  0  0  0  0  0  0  0  0  0
   13.4191  -19.5905   -2.0740 C   0  0  0  0  0  0  0  0  0  0  0  0
   14.4794  -19.8972   -3.0897 C   0  0  0  0  0  0  0  0  0  0  0  0
   14.3525  -21.1097   -3.9637 C   0  0  0  0  0  0  0  0  0  0  0  0
   12.6445  -24.4860   -5.4115 C   0  0  0  0  0  0  0  0  0  0  0  0
   13.7048  -24.7927   -6.4273 C   0  0  0  0  0  0  0  0  0  0  0  0
   14.7540  -23.7243   -6.3392 C   0  0  0  0  0  0  0  0  0  0  0  0
   17.4369  -25.9897  -10.0962 H   0  0  0  0  0  0  0  0  0  0  0  0
   15.2649  -26.2042   -8.6870 H   0  0  0  0  0  0  0  0  0  0  0  0
   17.9909  -22.8187   -8.1995 H   0  0  0  0  0  0  0  0  0  0  0  0
   18.6069  -24.6436   -9.4442 H   0  0  0  0  0  0  0  0  0  0  0  0
   22.8507  -21.7963  -10.6931 H   0  0  0  0  0  0  0  0  0  0  0  0
   21.8001  -23.4348  -11.5366 H   0  0  0  0  0  0  0  0  0  0  0  0
   21.3727  -21.6271   -9.1809 H   0  0  0  0  0  0  0  0  0  0  0  0
   15.4061  -24.9516   -7.7915 H   0  0  0  0  0  0  0  0  0  0  0  0
   17.7819  -22.3856   -7.4752 H   0  0  0  0  0  0  0  0  0  0  0  0
   17.7912  -23.4330   -8.3166 H   0  0  0  0  0  0  0  0  0  0  0  0
   18.0962  -20.2725   -6.0200 H   0  0  0  0  0  0  0  0  0  0  0  0
   18.5275  -21.2850   -7.1406 H   0  0  0  0  0  0  0  0  0  0  0  0
   15.9382  -19.9810   -4.2178 H   0  0  0  0  0  0  0  0  0  0  0  0
   17.3736  -19.8585   -5.1644 H   0  0  0  0  0  0  0  0  0  0  0  0
   14.6654  -20.5388   -3.7364 H   0  0  0  0  0  0  0  0  0  0  0  0
   11.7613  -23.4453   -3.9397 H   0  0  0  0  0  0  0  0  0  0  0  0
   10.9178  -22.6147   -2.6642 H   0  0  0  0  0  0  0  0  0  0  0  0
   11.1717  -20.1896   -0.9164 H   0  0  0  0  0  0  0  0  0  0  0  0
   13.5459  -18.3780   -1.2001 H   0  0  0  0  0  0  0  0  0  0  0  0
   15.6666  -18.9914   -3.2316 H   0  0  0  0  0  0  0  0  0  0  0  0
   15.5648  -21.1114   -4.8469 H   0  0  0  0  0  0  0  0  0  0  0  0
   11.4497  -24.4403   -4.5059 H   0  0  0  0  0  0  0  0  0  0  0  0
   12.0008  -25.7344   -5.9380 H   0  0  0  0  0  0  0  0  0  0  0  0
   12.8395  -25.9769   -6.7414 H   0  0  0  0  0  0  0  0  0  0  0  0
   14.4603  -25.4809   -7.5253 H   0  0  0  0  0  0  0  0  0  0  0  0
   13.5753  -23.6409   -5.4152 H   0  0  0  0  0  0  0  0  0  0  0  0
  1  2  2  3
  2  3  1  0
  3  4  1  0
  4  5  2  0
  4  6  1  0
  6  7  1  0
  2  8  1  0
  8  9  1  0
  9 10  1  0
 10 11  1  0
 11 12  1  0
 12 13  2  0
 13 14  1  0
 14 15  1  0
 15 16  2  0
 16 17  1  0
 17 18  2  0
 18 19  1  0
 19 20  2  0
 14 21  1  0
 21 22  1  0
 22 23  1  0
 23  8  1  0
 23 13  1  0
 20 15  1  0
  1 24  1  0
  1 25  1  0
  3 26  1  0
  3 27  1  0
  7 28  1  0
  7 29  1  0
  7 30  1  0
  8 31  1  0
  9 32  1  0
  9 33  1  0
 10 34  1  0
 10 35  1  0
 11 36  1  0
 11 37  1  0
 12 38  1  0
 14 39  1  0
 16 40  1  0
 17 41  1  0
 18 42  1  0
 19 43  1  0
 20 44  1  0
 21 45  1  0
 21 46  1  0
 22 47  1  0
 22 48  1  0
 23 49  1  0
M  END
