
     RDKit          2D

 26 29  0  0  0  0  0  0  0  0999 V2000
   17.5639  -22.0929   -6.9017 C   0  0  0  0  0  0  0  0  0  0  0  0
   16.5665  -23.0836   -7.4250 C   0  0  0  0  0  0  0  0  0  0  0  0
   16.5849  -23.7986   -6.1065 F   0  0  0  0  0  0  0  0  0  0  0  0
   15.5692  -24.0743   -7.9483 C   0  0  0  0  0  0  0  0  0  0  0  0
   14.6963  -24.5747   -9.0607 C   0  0  0  0  0  0  0  0  0  0  0  0
   15.5508  -23.3593   -9.2668 C   0  0  0  0  0  0  0  0  0  0  0  0
   16.5482  -22.3686   -8.7435 C   0  0  0  0  0  0  0  0  0  0  0  0
   16.5298  -21.6537  -10.0620 C   0  0  0  0  0  0  0  0  0  0  0  0
   16.5114  -20.9387  -11.3805 C   0  0  0  0  0  0  0  0  0  0  0  0
   15.3204  -21.0620  -12.2840 O   0  0  0  0  0  0  0  0  0  0  0  0
   16.4930  -20.2237  -12.6990 C   0  0  0  0  0  0  0  0  0  0  0  0
   16.4746  -19.5088  -14.0175 F   0  0  0  0  0  0  0  0  0  0  0  0
   17.6841  -20.1004  -11.7956 C   0  0  0  0  0  0  0  0  0  0  0  0
   18.5471  -19.1959  -12.6244 O   0  0  0  0  0  0  0  0  0  0  0  0
   18.5612  -21.1023   -6.3784 H   0  0  0  0  0  0  0  0  0  0  0  0
   16.6861  -21.8374   -5.7125 H   0  0  0  0  0  0  0  0  0  0  0  0
   18.1502  -22.1714   -7.5609 H   0  0  0  0  0  0  0  0  0  0  0  0
   15.3288  -25.0213   -6.8101 H   0  0  0  0  0  0  0  0  0  0  0  0
   14.0693  -25.7593   -8.3870 H   0  0  0  0  0  0  0  0  0  0  0  0
   14.0411  -24.6638  -10.4072 H   0  0  0  0  0  0  0  0  0  0  0  0
   15.2343  -23.1230  -10.4158 H   0  0  0  0  0  0  0  0  0  0  0  0
   17.1314  -21.7366   -8.5317 H   0  0  0  0  0  0  0  0  0  0  0  0
   17.8898  -21.0897   -9.7752 H   0  0  0  0  0  0  0  0  0  0  0  0
   15.4346  -22.0365  -10.4228 H   0  0  0  0  0  0  0  0  0  0  0  0
   18.5753  -20.2914  -10.6042 H   0  0  0  0  0  0  0  0  0  0  0  0
   19.8943  -18.7734  -12.1177 H   0  0  0  0  0  0  0  0  0  0  0  0
  1  2  1  0
  2  3  1  0
  2  4  1  0
  4  5  1  0
  5  6  1  0
  6  7  1  0
  7  8  1  0
  8  9  1  0
  9 10  1  0
 10 11  1  0
 11 12  1  0
 11 13  1  0
 13 14  1  0
  7  2  1  0
 11  9  1  0
  6  4  1  0
 13  9  1  0
  1 15  1  0
  1 16  1  0
  1 17  1  0
  4 18  1  0
  5 19  1  0
  5 20  1  0
  6 21  1  0
  7 22  1  0
  8 23  1  0
  8 24  1  0
 13 25  1  0
 14 26  1  0
M  END
