
     RDKit          2D

 71 72  0  0  0  0  0  0  0  0999 V2000
   16.8883  -18.5250  -11.2108 C   0  0  0  0  0  0  0  0  0  0  0  0
   17.4315  -18.8479   -9.8504 C   0  0  0  0  0  0  0  0  0  0  0  0
   18.8458  -19.3247   -9.7014 C   0  0  0  0  0  0  0  0  0  0  0  0
   20.2602  -19.8015   -9.5522 C   0  0  0  0  0  0  0  0  0  0  0  0
   19.0352  -19.2273  -11.1861 C   0  0  0  0  0  0  0  0  0  0  0  0
   19.2245  -19.1300  -12.6709 C   0  0  0  0  0  0  0  0  0  0  0  0
   19.4139  -19.0326  -14.1558 C   0  0  0  0  0  0  0  0  0  0  0  0
   19.6034  -18.9352  -15.6405 C   0  0  0  0  0  0  0  0  0  0  0  0
   18.6565  -19.4221   -8.2165 C   0  0  0  0  0  0  0  0  0  0  0  0
   18.4671  -19.5194   -6.7317 C   0  0  0  0  0  0  0  0  0  0  0  0
   18.2778  -19.6168   -5.2469 C   0  0  0  0  0  0  0  0  0  0  0  0
   18.0885  -19.7142   -3.7620 C   0  0  0  0  0  0  0  0  0  0  0  0
   16.6690  -19.2429   -3.6491 C   0  0  0  0  0  0  0  0  0  0  0  0
   17.4290  -19.6362   -2.4171 C   0  0  0  0  0  0  0  0  0  0  0  0
   18.5537  -20.1142   -1.5474 C   0  0  0  0  0  0  0  0  0  0  0  0
   19.6784  -20.5922   -0.6775 C   0  0  0  0  0  0  0  0  0  0  0  0
   20.8032  -21.0702    0.1922 C   0  0  0  0  0  0  0  0  0  0  0  0
   16.3789  -19.3921   -1.3742 C   0  0  0  0  0  0  0  0  0  0  0  0
   15.3288  -19.1481   -0.3312 C   0  0  0  0  0  0  0  0  0  0  0  0
   14.2787  -18.9040    0.7117 C   0  0  0  0  0  0  0  0  0  0  0  0
   15.4220  -18.9494   -2.4411 C   0  0  0  0  0  0  0  0  0  0  0  0
   14.4652  -18.5068   -3.5081 C   0  0  0  0  0  0  0  0  0  0  0  0
   13.2069  -18.0073   -4.1540 C   0  0  0  0  0  0  0  0  0  0  0  0
   13.2649  -18.1896   -2.6663 C   0  0  0  0  0  0  0  0  0  0  0  0
   11.8770  -17.7569   -2.2966 C   0  0  0  0  0  0  0  0  0  0  0  0
   15.4739  -18.0482  -11.3599 H   0  0  0  0  0  0  0  0  0  0  0  0
   17.4183  -18.5953  -12.1647 H   0  0  0  0  0  0  0  0  0  0  0  0
   16.4289  -18.6389   -8.7544 H   0  0  0  0  0  0  0  0  0  0  0  0
   21.6746  -20.2782   -9.4031 H   0  0  0  0  0  0  0  0  0  0  0  0
   20.4730  -19.7785  -10.4117 H   0  0  0  0  0  0  0  0  0  0  0  0
   20.2510  -19.8931   -8.6713 H   0  0  0  0  0  0  0  0  0  0  0  0
   18.2287  -18.9154  -11.3776 H   0  0  0  0  0  0  0  0  0  0  0  0
   20.0585  -19.5782  -11.3459 H   0  0  0  0  0  0  0  0  0  0  0  0
   20.7223  -19.2122  -12.6700 H   0  0  0  0  0  0  0  0  0  0  0  0
   17.7388  -19.0352  -12.8542 H   0  0  0  0  0  0  0  0  0  0  0  0
   17.9632  -19.3533  -14.3617 H   0  0  0  0  0  0  0  0  0  0  0  0
   20.8647  -18.7119  -13.9497 H   0  0  0  0  0  0  0  0  0  0  0  0
   19.7927  -18.8378  -17.1254 H   0  0  0  0  0  0  0  0  0  0  0  0
   21.0541  -18.6150  -15.4345 H   0  0  0  0  0  0  0  0  0  0  0  0
   18.1525  -19.2555  -15.8466 H   0  0  0  0  0  0  0  0  0  0  0  0
   17.2719  -18.8468   -8.1706 H   0  0  0  0  0  0  0  0  0  0  0  0
   19.4468  -19.7758   -8.0298 H   0  0  0  0  0  0  0  0  0  0  0  0
   19.8757  -20.0138   -6.5845 H   0  0  0  0  0  0  0  0  0  0  0  0
   17.0586  -19.0251   -6.8790 H   0  0  0  0  0  0  0  0  0  0  0  0
   19.5559  -20.0503   -5.2785 H   0  0  0  0  0  0  0  0  0  0  0  0
   16.8702  -19.1196   -5.3938 H   0  0  0  0  0  0  0  0  0  0  0  0
   19.4847  -20.2144   -3.5375 H   0  0  0  0  0  0  0  0  0  0  0  0
   15.2988  -18.8246   -3.2043 H   0  0  0  0  0  0  0  0  0  0  0  0
   16.2454  -18.9623   -4.8998 H   0  0  0  0  0  0  0  0  0  0  0  0
   18.0434  -20.0676   -0.2984 H   0  0  0  0  0  0  0  0  0  0  0  0
   19.5493  -20.3437   -2.6455 H   0  0  0  0  0  0  0  0  0  0  0  0
   19.1086  -20.5483    0.7093 H   0  0  0  0  0  0  0  0  0  0  0  0
   20.5461  -20.7566   -1.8901 H   0  0  0  0  0  0  0  0  0  0  0  0
   21.9279  -21.5482    1.0620 H   0  0  0  0  0  0  0  0  0  0  0  0
   21.6708  -21.2347   -1.0202 H   0  0  0  0  0  0  0  0  0  0  0  0
   20.0790  -20.9652    1.5016 H   0  0  0  0  0  0  0  0  0  0  0  0
   17.2006  -19.8018   -0.1880 H   0  0  0  0  0  0  0  0  0  0  0  0
   16.2858  -19.5903    0.7359 H   0  0  0  0  0  0  0  0  0  0  0  0
   14.1461  -18.6599   -1.1141 H   0  0  0  0  0  0  0  0  0  0  0  0
   13.2285  -18.6600    1.7547 H   0  0  0  0  0  0  0  0  0  0  0  0
   15.2423  -19.3266    1.7808 H   0  0  0  0  0  0  0  0  0  0  0  0
   13.3151  -18.4814   -0.3573 H   0  0  0  0  0  0  0  0  0  0  0  0
   14.3717  -18.7058   -1.3982 H   0  0  0  0  0  0  0  0  0  0  0  0
   16.2095  -19.0787   -3.7112 H   0  0  0  0  0  0  0  0  0  0  0  0
   15.0352  -18.5496   -4.8949 H   0  0  0  0  0  0  0  0  0  0  0  0
   13.4696  -17.9358   -5.6291 H   0  0  0  0  0  0  0  0  0  0  0  0
   11.8325  -17.5031   -4.4810 H   0  0  0  0  0  0  0  0  0  0  0  0
   13.4708  -18.4200   -1.1985 H   0  0  0  0  0  0  0  0  0  0  0  0
   10.4892  -17.3242   -1.9268 H   0  0  0  0  0  0  0  0  0  0  0  0
   12.2394  -17.8366   -0.8431 H   0  0  0  0  0  0  0  0  0  0  0  0
   11.3483  -17.6249   -3.6940 H   0  0  0  0  0  0  0  0  0  0  0  0
  1  2  2  3
  2  3  1  0
  3  4  1  0
  3  5  1  0
  5  6  1  0
  6  7  1  0
  7  8  1  0
  3  9  1  0
  9 10  1  0
 10 11  1  0
 11 12  1  0
 12 13  1  0
 13 14  1  0
 14 15  1  0
 15 16  1  0
 16 17  1  0
 14 18  1  0
 18 19  1  0
 19 20  1  0
 18 21  1  0
 21 22  1  0
 22 23  1  0
 23 24  1  0
 24 25  1  0
 14 12  1  0
 24 22  1  0
  1 26  1  0
  1 27  1  0
  2 28  1  0
  4 29  1  0
  4 30  1  0
  4 31  1  0
  5 32  1  0
  5 33  1  0
  6 34  1  0
  6 35  1  0
  7 36  1  0
  7 37  1  0
  8 38  1  0
  8 39  1  0
  8 40  1  0
  9 41  1  0
  9 42  1  0
 10 43  1  0
 10 44  1  0
 11 45  1  0
 11 46  1  0
 12 47  1  0
 13 48  1  0
 13 49  1  0
 15 50  1  0
 15 51  1  0
 16 52  1  0
 16 53  1  0
 17 54  1  0
 17 55  1  0
 17 56  1  0
 18 57  1  0
 19 58  1  0
 19 59  1  0
 20 60  1  0
 20 61  1  0
 20 62  1  0
 21 63  1  0
 21 64  1  0
 22 65  1  0
 23 66  1  0
 23 67  1  0
 24 68  1  0
 25 69  1  0
 25 70  1  0
 25 71  1  0
M  END
