
     RDKit          2D

 35 37  0  0  0  0  0  0  0  0999 V2000
    0.9132   24.5767   -0.5108 C   0  0  0  0  0  0  0  0  0  0  0  0
   -0.3570   23.9118   -0.0699 C   0  0  0  0  0  0  0  0  0  0  0  0
   -1.6272   23.2468    0.3710 C   0  0  0  0  0  0  0  0  0  0  0  0
   -2.8974   22.5818    0.8119 C   0  0  0  0  0  0  0  0  0  0  0  0
   -3.2211   22.2280    1.6713 O   0  0  0  0  0  0  0  0  0  0  0  0
   -4.0006   22.3425   -0.1758 O   0  0  0  0  0  0  0  0  0  0  0  0
   -1.0853   23.1363    1.7654 C   0  0  0  0  0  0  0  0  0  0  0  0
   -0.5434   23.0258    3.1597 C   0  0  0  0  0  0  0  0  0  0  0  0
   -1.8180   22.3709    3.6031 C   0  0  0  0  0  0  0  0  0  0  0  0
   -3.1927   21.8590    3.2900 C   0  0  0  0  0  0  0  0  0  0  0  0
   -4.4271   21.5227    2.5069 C   0  0  0  0  0  0  0  0  0  0  0  0
   -5.8018   21.0108    2.1937 C   0  0  0  0  0  0  0  0  0  0  0  0
   -5.2599   20.9003    3.5881 C   0  0  0  0  0  0  0  0  0  0  0  0
   -6.4210   20.2361    4.2668 C   0  0  0  0  0  0  0  0  0  0  0  0
   -2.3598   22.4814    2.2088 C   0  0  0  0  0  0  0  0  0  0  0  0
    2.1835   25.2417   -0.9518 H   0  0  0  0  0  0  0  0  0  0  0  0
    0.3734   24.6827   -1.9062 H   0  0  0  0  0  0  0  0  0  0  0  0
    1.4532   24.4707    0.8847 H   0  0  0  0  0  0  0  0  0  0  0  0
    0.0515   23.8961    0.7159 H   0  0  0  0  0  0  0  0  0  0  0  0
   -0.8979   24.0202   -1.4648 H   0  0  0  0  0  0  0  0  0  0  0  0
   -2.1690   23.3573   -1.0233 H   0  0  0  0  0  0  0  0  0  0  0  0
   -3.8337   22.7682   -1.6043 H   0  0  0  0  0  0  0  0  0  0  0  0
   -0.2992   23.5122    1.6059 H   0  0  0  0  0  0  0  0  0  0  0  0
    0.7311   23.6807    2.7163 H   0  0  0  0  0  0  0  0  0  0  0  0
   -0.0015   22.9153    4.5541 H   0  0  0  0  0  0  0  0  0  0  0  0
   -1.6245   22.0946    5.0648 H   0  0  0  0  0  0  0  0  0  0  0  0
   -3.4324   21.4096    4.7009 H   0  0  0  0  0  0  0  0  0  0  0  0
   -4.0229   22.0283    1.1537 H   0  0  0  0  0  0  0  0  0  0  0  0
   -5.8750   21.3386    0.7318 H   0  0  0  0  0  0  0  0  0  0  0  0
   -7.0413   20.4762    2.2084 H   0  0  0  0  0  0  0  0  0  0  0  0
   -4.4453   20.9399    4.8469 H   0  0  0  0  0  0  0  0  0  0  0  0
   -7.5822   19.5720    4.9457 H   0  0  0  0  0  0  0  0  0  0  0  0
   -5.6662   20.2415    5.5631 H   0  0  0  0  0  0  0  0  0  0  0  0
   -7.2227   20.1585    3.1834 H   0  0  0  0  0  0  0  0  0  0  0  0
   -2.9401   22.3640    1.6749 H   0  0  0  0  0  0  0  0  0  0  0  0
  1  2  1  0
  2  3  1  0
  3  4  1  0
  4  5  2  0
  4  6  1  0
  3  7  1  0
  7  8  1  0
  8  9  1  0
  9 10  1  0
 10 11  1  0
 11 12  1  0
 12 13  1  0
 13 14  1  0
 10 15  1  0
 15  7  1  0
 15  9  1  0
 13 11  1  0
  1 16  1  0
  1 17  1  0
  1 18  1  0
  2 19  1  0
  2 20  1  0
  3 21  1  0
  6 22  1  0
  7 23  1  0
  8 24  1  0
  8 25  1  0
  9 26  1  0
 10 27  1  0
 11 28  1  0
 12 29  1  0
 12 30  1  0
 13 31  1  0
 14 32  1  0
 14 33  1  0
 14 34  1  0
 15 35  1  0
M  END
