
     RDKit          2D

 89 93  0  0  0  0  0  0  0  0999 V2000
   14.4746  -16.3178  -13.8360 C   0  0  0  0  0  0  0  0  0  0  0  0
   14.4089  -16.4999  -12.3486 C   0  0  0  0  0  0  0  0  0  0  0  0
   13.5457  -15.5955  -11.5198 C   0  0  0  0  0  0  0  0  0  0  0  0
   12.6826  -14.6911  -10.6908 C   0  0  0  0  0  0  0  0  0  0  0  0
   11.8195  -13.7867   -9.8620 O   0  0  0  0  0  0  0  0  0  0  0  0
   12.2494  -13.9676  -11.9315 O   0  0  0  0  0  0  0  0  0  0  0  0
   15.2062  -17.5863  -11.6900 C   0  0  0  0  0  0  0  0  0  0  0  0
   16.0037  -18.6728  -11.0314 C   0  0  0  0  0  0  0  0  0  0  0  0
   15.7424  -18.0036  -13.0274 C   0  0  0  0  0  0  0  0  0  0  0  0
   16.2785  -18.4207  -14.3647 C   0  0  0  0  0  0  0  0  0  0  0  0
   15.3996  -17.2543  -14.7066 N   0  0  0  0  0  0  0  0  0  0  0  0
   15.1247  -16.6535  -16.0532 N   0  0  0  0  0  0  0  0  0  0  0  0
   15.6608  -17.0706  -17.3905 C   0  0  0  0  0  0  0  0  0  0  0  0
   15.8058  -16.9687  -18.8801 C   0  0  0  0  0  0  0  0  0  0  0  0
   16.6043  -18.1917  -17.7116 C   0  0  0  0  0  0  0  0  0  0  0  0
   17.4254  -19.0454  -18.6319 C   0  0  0  0  0  0  0  0  0  0  0  0
   18.2465  -19.8991  -19.5522 C   0  0  0  0  0  0  0  0  0  0  0  0
   19.0677  -20.7528  -20.4726 C   0  0  0  0  0  0  0  0  0  0  0  0
   18.5942  -19.9448  -21.6443 N   0  0  0  0  0  0  0  0  0  0  0  0
   19.4154  -20.7985  -22.5646 C   0  0  0  0  0  0  0  0  0  0  0  0
   19.8888  -21.6064  -21.3929 C   0  0  0  0  0  0  0  0  0  0  0  0
   20.3621  -22.4144  -20.2210 C   0  0  0  0  0  0  0  0  0  0  0  0
   20.8356  -23.2224  -19.0493 C   0  0  0  0  0  0  0  0  0  0  0  0
   17.2446  -19.1725  -16.7745 O   0  0  0  0  0  0  0  0  0  0  0  0
   17.0997  -19.2744  -15.2851 C   0  0  0  0  0  0  0  0  0  0  0  0
   17.3746  -19.8752  -13.9384 C   0  0  0  0  0  0  0  0  0  0  0  0
   17.6495  -20.4761  -12.5918 C   0  0  0  0  0  0  0  0  0  0  0  0
   17.9244  -21.0770  -11.2452 C   0  0  0  0  0  0  0  0  0  0  0  0
   18.8634  -22.1787  -11.6382 C   0  0  0  0  0  0  0  0  0  0  0  0
   19.2345  -22.3693  -13.0791 C   0  0  0  0  0  0  0  0  0  0  0  0
   19.6056  -22.5601  -14.5199 C   0  0  0  0  0  0  0  0  0  0  0  0
   19.9767  -22.7508  -15.9607 C   0  0  0  0  0  0  0  0  0  0  0  0
   20.3479  -22.9415  -17.4015 C   0  0  0  0  0  0  0  0  0  0  0  0
   19.4313  -23.0897  -10.5906 C   0  0  0  0  0  0  0  0  0  0  0  0
   19.0601  -22.8989   -9.1498 C   0  0  0  0  0  0  0  0  0  0  0  0
   18.4923  -21.9880  -10.1974 C   0  0  0  0  0  0  0  0  0  0  0  0
   14.8653  -16.6901  -14.4228 H   0  0  0  0  0  0  0  0  0  0  0  0
   13.6772  -15.2314  -14.4946 H   0  0  0  0  0  0  0  0  0  0  0  0
   13.1236  -14.8629  -12.7588 H   0  0  0  0  0  0  0  0  0  0  0  0
   13.9679  -16.3281  -10.2807 H   0  0  0  0  0  0  0  0  0  0  0  0
   13.1158  -15.4145   -9.4503 H   0  0  0  0  0  0  0  0  0  0  0  0
   11.7724  -13.9532   -8.3719 H   0  0  0  0  0  0  0  0  0  0  0  0
   12.7678  -14.3996  -13.2712 H   0  0  0  0  0  0  0  0  0  0  0  0
   14.6701  -17.1692  -10.3527 H   0  0  0  0  0  0  0  0  0  0  0  0
   16.7298  -19.7003  -10.2147 H   0  0  0  0  0  0  0  0  0  0  0  0
   15.4674  -18.2557   -9.6940 H   0  0  0  0  0  0  0  0  0  0  0  0
   16.5400  -19.0899  -12.3687 H   0  0  0  0  0  0  0  0  0  0  0  0
   15.0344  -16.9614  -13.8414 H   0  0  0  0  0  0  0  0  0  0  0  0
   16.5215  -19.1048  -12.3714 H   0  0  0  0  0  0  0  0  0  0  0  0
   16.8293  -19.3147  -13.2935 H   0  0  0  0  0  0  0  0  0  0  0  0
   14.5202  -16.2943  -13.9615 H   0  0  0  0  0  0  0  0  0  0  0  0
   14.1901  -15.4803  -16.0639 H   0  0  0  0  0  0  0  0  0  0  0  0
   14.7818  -15.9042  -17.7324 H   0  0  0  0  0  0  0  0  0  0  0  0
   15.9508  -16.8668  -20.3696 H   0  0  0  0  0  0  0  0  0  0  0  0
   14.9938  -15.7076  -18.8728 H   0  0  0  0  0  0  0  0  0  0  0  0
   16.6295  -18.2081  -19.0689 H   0  0  0  0  0  0  0  0  0  0  0  0
   16.4418  -17.7188  -19.1258 H   0  0  0  0  0  0  0  0  0  0  0  0
   16.9570  -18.2334  -19.8030 H   0  0  0  0  0  0  0  0  0  0  0  0
   17.8938  -19.8574  -17.4609 H   0  0  0  0  0  0  0  0  0  0  0  0
   18.7085  -20.7161  -18.3822 H   0  0  0  0  0  0  0  0  0  0  0  0
   17.7845  -19.0821  -20.7223 H   0  0  0  0  0  0  0  0  0  0  0  0
   19.4374  -21.4506  -19.1973 H   0  0  0  0  0  0  0  0  0  0  0  0
   17.6789  -18.7698  -21.8221 H   0  0  0  0  0  0  0  0  0  0  0  0
   20.2365  -21.6521  -23.4850 H   0  0  0  0  0  0  0  0  0  0  0  0
   18.9420  -19.9905  -23.7365 H   0  0  0  0  0  0  0  0  0  0  0  0
   20.7099  -22.4601  -22.3132 H   0  0  0  0  0  0  0  0  0  0  0  0
   21.1796  -23.2710  -21.1420 H   0  0  0  0  0  0  0  0  0  0  0  0
   19.6085  -21.6627  -19.1642 H   0  0  0  0  0  0  0  0  0  0  0  0
   21.4050  -24.1287  -17.9984 H   0  0  0  0  0  0  0  0  0  0  0  0
   21.6529  -24.0790  -19.9701 H   0  0  0  0  0  0  0  0  0  0  0  0
   19.9666  -22.2736  -18.2781 H   0  0  0  0  0  0  0  0  0  0  0  0
   18.0432  -20.3955  -15.6061 H   0  0  0  0  0  0  0  0  0  0  0  0
   18.2403  -20.8064  -14.7343 H   0  0  0  0  0  0  0  0  0  0  0  0
   16.5088  -18.9441  -13.1425 H   0  0  0  0  0  0  0  0  0  0  0  0
   18.3324  -21.5340  -13.4069 H   0  0  0  0  0  0  0  0  0  0  0  0
   16.9277  -19.3364  -11.9359 H   0  0  0  0  0  0  0  0  0  0  0  0
   17.1394  -20.2841  -10.2426 H   0  0  0  0  0  0  0  0  0  0  0  0
   20.1074  -23.5291  -12.7007 H   0  0  0  0  0  0  0  0  0  0  0  0
   18.4134  -21.2416  -13.6302 H   0  0  0  0  0  0  0  0  0  0  0  0
   20.4817  -23.7173  -14.1410 H   0  0  0  0  0  0  0  0  0  0  0  0
   18.7813  -21.4348  -15.0715 H   0  0  0  0  0  0  0  0  0  0  0  0
   20.9902  -23.7827  -15.5631 H   0  0  0  0  0  0  0  0  0  0  0  0
   18.9632  -21.7190  -16.3583 H   0  0  0  0  0  0  0  0  0  0  0  0
   20.9191  -23.4073  -18.7079 H   0  0  0  0  0  0  0  0  0  0  0  0
   21.1687  -24.0695  -16.8504 H   0  0  0  0  0  0  0  0  0  0  0  0
   19.4365  -21.7670  -17.6013 H   0  0  0  0  0  0  0  0  0  0  0  0
   20.3702  -24.1914  -10.9837 H   0  0  0  0  0  0  0  0  0  0  0  0
   19.8524  -24.0102   -8.5274 H   0  0  0  0  0  0  0  0  0  0  0  0
   18.4139  -22.3223   -7.9251 H   0  0  0  0  0  0  0  0  0  0  0  0
  1  2  2  3
  2  3  1  0
  3  4  1  0
  4  5  1  0
  4  6  1  0
  2  7  1  0
  7  8  1  0
  7  9  1  0
  9 10  1  0
 10 11  1  0
 11 12  1  0
 12 13  1  0
 13 14  1  0
 13 15  1  0
 15 16  1  0
 16 17  1  0
 17 18  1  0
 18 19  1  0
 19 20  1  0
 20 21  1  0
 21 22  1  0
 22 23  1  0
 15 24  1  0
 24 25  1  0
 25 26  1  0
 26 27  1  0
 27 28  1  0
 28 29  1  0
 29 30  1  0
 30 31  1  0
 31 32  1  0
 32 33  1  0
 29 34  1  0
 34 35  1  0
 35 36  1  0
 25 10  1  0
 36 28  1  0
 21 18  1  0
 36 29  1  0
 36 34  1  0
  1 37  1  0
  1 38  1  0
  3 39  1  0
  3 40  1  0
  4 41  1  0
  5 42  1  0
  6 43  1  0
  7 44  1  0
  8 45  1  0
  8 46  1  0
  8 47  1  0
  9 48  1  0
  9 49  1  0
 10 50  1  0
 11 51  1  0
 12 52  1  0
 13 53  1  0
 14 54  1  0
 14 55  1  0
 14 56  1  0
 15 57  1  0
 16 58  1  0
 16 59  1  0
 17 60  1  0
 17 61  1  0
 18 62  1  0
 19 63  1  0
 20 64  1  0
 20 65  1  0
 21 66  1  0
 22 67  1  0
 22 68  1  0
 23 69  1  0
 23 70  1  0
 23 71  1  0
 25 72  1  0
 26 73  1  0
 26 74  1  0
 27 75  1  0
 27 76  1  0
 28 77  1  0
 30 78  1  0
 30 79  1  0
 31 80  1  0
 31 81  1  0
 32 82  1  0
 32 83  1  0
 33 84  1  0
 33 85  1  0
 33 86  1  0
 34 87  1  0
 35 88  1  0
 35 89  1  0
M  END
