
     RDKit          2D

110117  0  0  0  0  0  0  0  0999 V2000
    3.0798   12.7240   12.7748 C   0  0  0  0  0  0  0  0  0  0  0  0
    2.6259   14.1080   12.4159 C   0  0  0  0  0  0  0  0  0  0  0  0
    2.1721   15.4919   12.0570 C   0  0  0  0  0  0  0  0  0  0  0  0
    1.7183   16.8758   11.6981 C   0  0  0  0  0  0  0  0  0  0  0  0
    1.2644   18.2598   11.3392 C   0  0  0  0  0  0  0  0  0  0  0  0
    1.1553   19.5598   10.5990 C   0  0  0  0  0  0  0  0  0  0  0  0
    0.2112   20.6208   11.0815 C   0  0  0  0  0  0  0  0  0  0  0  0
    0.7880   21.3116    9.8815 C   0  0  0  0  0  0  0  0  0  0  0  0
    1.3647   22.0024    8.6814 C   0  0  0  0  0  0  0  0  0  0  0  0
    1.9415   22.6932    7.4815 C   0  0  0  0  0  0  0  0  0  0  0  0
    0.5077   23.2015    8.9599 C   0  0  0  0  0  0  0  0  0  0  0  0
   -0.5248   23.8241    9.8523 C   0  0  0  0  0  0  0  0  0  0  0  0
   -1.3092   25.0952    9.9894 C   0  0  0  0  0  0  0  0  0  0  0  0
   -1.4785   26.4202    9.3070 C   0  0  0  0  0  0  0  0  0  0  0  0
   -2.0895   25.7804   10.5184 C   0  0  0  0  0  0  0  0  0  0  0  0
   -3.1212   26.3405   11.4521 C   0  0  0  0  0  0  0  0  0  0  0  0
   -4.1351   26.7059   12.4953 C   0  0  0  0  0  0  0  0  0  0  0  0
   -3.7968   27.6789   11.4051 C   0  0  0  0  0  0  0  0  0  0  0  0
   -3.6075   28.7877   10.4128 C   0  0  0  0  0  0  0  0  0  0  0  0
   -2.6960   28.8321    9.2223 C   0  0  0  0  0  0  0  0  0  0  0  0
   -1.7485   27.7784    8.7303 C   0  0  0  0  0  0  0  0  0  0  0  0
   -1.5593   28.8872    7.7380 C   0  0  0  0  0  0  0  0  0  0  0  0
   -1.7286   30.2122    7.0555 C   0  0  0  0  0  0  0  0  0  0  0  0
   -2.5261   29.8948    8.2858 C   0  0  0  0  0  0  0  0  0  0  0  0
   -2.7827   27.3136   10.3619 C   0  0  0  0  0  0  0  0  0  0  0  0
   -0.9536   27.1792    8.1245 N   0  0  0  0  0  0  0  0  0  0  0  0
    0.0200   27.0168    6.9950 C   0  0  0  0  0  0  0  0  0  0  0  0
   -0.5884   28.3797    6.8459 C   0  0  0  0  0  0  0  0  0  0  0  0
   -0.8749   29.7420    6.2874 C   0  0  0  0  0  0  0  0  0  0  0  0
    0.1274   28.8513    5.6150 C   0  0  0  0  0  0  0  0  0  0  0  0
    0.5456   29.7394    4.4808 C   0  0  0  0  0  0  0  0  0  0  0  0
    0.9638   30.6275    3.3466 C   0  0  0  0  0  0  0  0  0  0  0  0
    1.3821   31.5155    2.2123 C   0  0  0  0  0  0  0  0  0  0  0  0
    0.4366   32.5758    2.6939 O   0  0  0  0  0  0  0  0  0  0  0  0
    1.8003   32.4035    1.0781 C   0  0  0  0  0  0  0  0  0  0  0  0
    1.8703   33.6010    0.1774 O   0  0  0  0  0  0  0  0  0  0  0  0
    0.9431   33.6027    1.3566 C   0  0  0  0  0  0  0  0  0  0  0  0
    0.3347   34.9656    1.2074 O   0  0  0  0  0  0  0  0  0  0  0  0
    0.9868   26.0091    6.4472 Se  0  0  0  0  0  2  0  0  0  0  0  0
    1.4943   24.6278    6.7373 C   0  0  0  0  0  0  0  0  0  0  0  0
    2.2102   25.0994    5.5064 C   0  0  0  0  0  0  0  0  0  0  0  0
    1.3051   23.5189    7.7296 C   0  0  0  0  0  0  0  0  0  0  0  0
   -0.6239   20.3817   12.3045 C   0  0  0  0  0  0  0  0  0  0  0  0
   -0.5148   19.0817   13.0447 C   0  0  0  0  0  0  0  0  0  0  0  0
    0.4294   18.0207   12.5621 O   0  0  0  0  0  0  0  0  0  0  0  0
    3.5336   11.3401   13.1336 H   0  0  0  0  0  0  0  0  0  0  0  0
    3.6911   13.2523   14.0386 H   0  0  0  0  0  0  0  0  0  0  0  0
    2.4685   12.1958   11.5110 H   0  0  0  0  0  0  0  0  0  0  0  0
    3.2428   14.6372   13.6766 H   0  0  0  0  0  0  0  0  0  0  0  0
    2.0091   13.5788   11.1551 H   0  0  0  0  0  0  0  0  0  0  0  0
    2.5422   15.2419   10.6250 H   0  0  0  0  0  0  0  0  0  0  0  0
    1.8020   15.7419   13.4890 H   0  0  0  0  0  0  0  0  0  0  0  0
    1.1607   17.0512   13.0796 H   0  0  0  0  0  0  0  0  0  0  0  0
    2.2759   16.7005   10.3167 H   0  0  0  0  0  0  0  0  0  0  0  0
    2.2572   18.0182   10.2410 H   0  0  0  0  0  0  0  0  0  0  0  0
    2.1860   18.8667    9.7578 H   0  0  0  0  0  0  0  0  0  0  0  0
    1.3516   20.0608   10.0108 H   0  0  0  0  0  0  0  0  0  0  0  0
   -0.4582   21.7915   11.1408 H   0  0  0  0  0  0  0  0  0  0  0  0
   -0.0875   22.2075   10.3848 H   0  0  0  0  0  0  0  0  0  0  0  0
    1.2783   20.7243    9.6576 H   0  0  0  0  0  0  0  0  0  0  0  0
    2.2218   20.8033    8.4031 H   0  0  0  0  0  0  0  0  0  0  0  0
    2.7085   23.0734    6.2497 H   0  0  0  0  0  0  0  0  0  0  0  0
    2.7218   21.4188    7.3514 H   0  0  0  0  0  0  0  0  0  0  0  0
    2.8625   21.5873    7.0588 H   0  0  0  0  0  0  0  0  0  0  0  0
    0.2018   22.1963   10.0304 H   0  0  0  0  0  0  0  0  0  0  0  0
   -0.4869   22.5608   10.6602 H   0  0  0  0  0  0  0  0  0  0  0  0
   -1.3184   23.4988   11.0830 H   0  0  0  0  0  0  0  0  0  0  0  0
   -1.7274   24.2072   11.1237 H   0  0  0  0  0  0  0  0  0  0  0  0
   -2.3345   25.5549   10.9832 H   0  0  0  0  0  0  0  0  0  0  0  0
   -1.2695   24.5410   10.3144 H   0  0  0  0  0  0  0  0  0  0  0  0
   -2.4010   24.7807   11.5924 H   0  0  0  0  0  0  0  0  0  0  0  0
   -4.1195   25.4550   13.3231 H   0  0  0  0  0  0  0  0  0  0  0  0
   -5.1546   27.5056   13.2511 H   0  0  0  0  0  0  0  0  0  0  0  0
   -4.6392   29.3479   11.3465 H   0  0  0  0  0  0  0  0  0  0  0  0
   -3.9969   30.1679    9.9731 H   0  0  0  0  0  0  0  0  0  0  0  0
   -3.2714   30.2032    9.0256 H   0  0  0  0  0  0  0  0  0  0  0  0
   -2.3047   29.7498    8.1023 H   0  0  0  0  0  0  0  0  0  0  0  0
   -0.7575   27.5410    7.6295 H   0  0  0  0  0  0  0  0  0  0  0  0
   -0.5551   28.5821    6.6663 H   0  0  0  0  0  0  0  0  0  0  0  0
   -0.8671   30.3872    5.8402 H   0  0  0  0  0  0  0  0  0  0  0  0
   -2.2361   31.5936    6.7654 H   0  0  0  0  0  0  0  0  0  0  0  0
   -3.3105   31.1660    8.4229 H   0  0  0  0  0  0  0  0  0  0  0  0
   -3.1555   29.2826    9.5019 H   0  0  0  0  0  0  0  0  0  0  0  0
   -2.4273   28.2693    9.2618 H   0  0  0  0  0  0  0  0  0  0  0  0
   -1.7540   26.8108    9.3930 H   0  0  0  0  0  0  0  0  0  0  0  0
   -1.5075   28.5546    7.8974 H   0  0  0  0  0  0  0  0  0  0  0  0
    0.7402   27.4808    5.7637 H   0  0  0  0  0  0  0  0  0  0  0  0
   -1.6168   28.8773    7.8179 H   0  0  0  0  0  0  0  0  0  0  0  0
   -1.8976   30.5173    7.0639 H   0  0  0  0  0  0  0  0  0  0  0  0
   -0.9308   31.0150    5.4959 H   0  0  0  0  0  0  0  0  0  0  0  0
    1.0483   27.7452    5.1923 H   0  0  0  0  0  0  0  0  0  0  0  0
    1.5433   28.7089    4.0418 H   0  0  0  0  0  0  0  0  0  0  0  0
   -0.3936   30.8705    4.7783 H   0  0  0  0  0  0  0  0  0  0  0  0
    1.9086   29.5668    2.8645 H   0  0  0  0  0  0  0  0  0  0  0  0
    0.0191   31.6881    3.8287 H   0  0  0  0  0  0  0  0  0  0  0  0
    2.3275   30.4552    1.7308 H   0  0  0  0  0  0  0  0  0  0  0  0
    0.3273   33.8757    1.9535 H   0  0  0  0  0  0  0  0  0  0  0  0
    2.8025   31.5129    0.4059 H   0  0  0  0  0  0  0  0  0  0  0  0
    0.0685   33.4599    2.5668 H   0  0  0  0  0  0  0  0  0  0  0  0
   -0.6919   35.4406    2.1924 H   0  0  0  0  0  0  0  0  0  0  0  0
    2.4994   23.7495    6.0530 H   0  0  0  0  0  0  0  0  0  0  0  0
    2.9260   25.5710    4.2755 H   0  0  0  0  0  0  0  0  0  0  0  0
    2.9535   23.7982    5.4402 H   0  0  0  0  0  0  0  0  0  0  0  0
    1.4667   26.4006    5.5726 H   0  0  0  0  0  0  0  0  0  0  0  0
    2.3317   23.0441    6.7445 H   0  0  0  0  0  0  0  0  0  0  0  0
    1.9232   22.1589    7.8645 H   0  0  0  0  0  0  0  0  0  0  0  0
   -1.0777   21.7656   11.9456 H   0  0  0  0  0  0  0  0  0  0  0  0
   -1.6166   20.6233   13.4028 H   0  0  0  0  0  0  0  0  0  0  0  0
   -1.5454   19.7748   13.8859 H   0  0  0  0  0  0  0  0  0  0  0  0
   -0.7636   18.0223   14.0772 H   0  0  0  0  0  0  0  0  0  0  0  0
  1  2  1  0
  2  3  1  0
  3  4  1  0
  4  5  1  0
  5  6  1  0
  6  7  1  0
  7  8  1  0
  8  9  1  0
  9 10  1  0
  9 11  1  0
 11 12  1  0
 12 13  1  0
 13 14  1  0
 14 15  1  0
 15 16  1  0
 16 17  1  0
 17 18  1  0
 18 19  1  0
 19 20  1  0
 20 21  1  0
 21 22  1  0
 22 23  1  0
 23 24  1  0
 18 25  1  0
 14 26  1  0
 26 27  1  0
 27 28  1  0
 28 29  1  0
 29 30  1  0
 30 31  1  0
 31 32  1  0
 32 33  1  0
 33 34  1  0
 33 35  1  0
 35 36  1  0
 36 37  1  0
 37 38  1  0
 27 39  1  0
 39 40  1  0
 40 41  1  0
 40 42  1  0
  7 43  1  0
 43 44  1  0
 44 45  1  0
 45  5  1  0
 42 11  1  0
 21 14  1  0
 24 22  1  0
 30 28  1  0
 37 35  1  0
 18 16  1  0
 25 16  1  0
  1 46  1  0
  1 47  1  0
  1 48  1  0
  2 49  1  0
  2 50  1  0
  3 51  1  0
  3 52  1  0
  4 53  1  0
  4 54  1  0
  5 55  1  0
  6 56  1  0
  6 57  1  0
  7 58  1  0
  8 59  1  0
  8 60  1  0
  9 61  1  0
 10 62  1  0
 10 63  1  0
 10 64  1  0
 11 65  1  0
 12 66  1  0
 12 67  1  0
 13 68  1  0
 13 69  1  0
 15 70  1  0
 15 71  1  0
 17 72  1  0
 17 73  1  0
 19 74  1  0
 19 75  1  0
 20 76  1  0
 20 77  1  0
 21 78  1  0
 22 79  1  0
 23 80  1  0
 23 81  1  0
 24 82  1  0
 24 83  1  0
 25 84  1  0
 25 85  1  0
 26 86  1  0
 27 87  1  0
 28 88  1  0
 29 89  1  0
 29 90  1  0
 30 91  1  0
 31 92  1  0
 31 93  1  0
 32 94  1  0
 32 95  1  0
 33 96  1  0
 34 97  1  0
 35 98  1  0
 37 99  1  0
 38100  1  0
 40101  1  0
 41102  1  0
 41103  1  0
 41104  1  0
 42105  1  0
 42106  1  0
 43107  1  0
 43108  1  0
 44109  1  0
 44110  1  0
M  END
