
     RDKit          2D

 44 46  0  0  0  0  0  0  0  0999 V2000
   -9.0976   26.6269    8.6001 C   0  0  0  0  0  0  0  0  0  0  0  0
   -7.8267   25.8306    8.6273 C   0  0  0  0  0  0  0  0  0  0  0  0
   -6.5943   26.3619    7.9573 C   0  0  0  0  0  0  0  0  0  0  0  0
   -5.6357   25.2466    8.2528 C   0  0  0  0  0  0  0  0  0  0  0  0
   -5.1777   26.4418    7.4708 C   0  0  0  0  0  0  0  0  0  0  0  0
   -4.7195   27.6371    6.6887 C   0  0  0  0  0  0  0  0  0  0  0  0
   -3.7610   26.5218    6.9842 C   0  0  0  0  0  0  0  0  0  0  0  0
   -2.5286   27.0532    6.3142 C   0  0  0  0  0  0  0  0  0  0  0  0
   -2.5671   28.3807    5.6171 C   0  0  0  0  0  0  0  0  0  0  0  0
   -1.2576   26.2569    6.3415 C   0  0  0  0  0  0  0  0  0  0  0  0
    0.0132   25.4606    6.3686 C   0  0  0  0  0  0  0  0  0  0  0  0
    1.2842   24.6643    6.3958 C   0  0  0  0  0  0  0  0  0  0  0  0
    2.5551   23.8680    6.4230 C   0  0  0  0  0  0  0  0  0  0  0  0
    2.7278   24.6772    7.6741 C   0  0  0  0  0  0  0  0  0  0  0  0
    3.9582   24.5051    8.5146 C   0  0  0  0  0  0  0  0  0  0  0  0
    5.0158   23.5238    8.1040 C   0  0  0  0  0  0  0  0  0  0  0  0
    4.8430   22.7147    6.8529 C   0  0  0  0  0  0  0  0  0  0  0  0
    3.6127   22.8868    6.0124 C   0  0  0  0  0  0  0  0  0  0  0  0
  -10.3300   26.0955    9.2701 H   0  0  0  0  0  0  0  0  0  0  0  0
   -9.1361   27.9545    7.9030 H   0  0  0  0  0  0  0  0  0  0  0  0
   -7.7881   24.5030    9.3245 H   0  0  0  0  0  0  0  0  0  0  0  0
   -7.1248   27.6618    7.4291 H   0  0  0  0  0  0  0  0  0  0  0  0
   -4.3648   24.4504    8.2800 H   0  0  0  0  0  0  0  0  0  0  0  0
   -6.5352   24.3280    9.0254 H   0  0  0  0  0  0  0  0  0  0  0  0
   -5.9904   28.4333    6.6616 H   0  0  0  0  0  0  0  0  0  0  0  0
   -4.1081   28.4715    6.0514 H   0  0  0  0  0  0  0  0  0  0  0  0
   -3.2304   25.2219    7.5124 H   0  0  0  0  0  0  0  0  0  0  0  0
   -1.3348   28.9121    4.9471 H   0  0  0  0  0  0  0  0  0  0  0  0
   -3.5209   29.1268    5.5173 H   0  0  0  0  0  0  0  0  0  0  0  0
   -1.6575   25.5753    5.0664 H   0  0  0  0  0  0  0  0  0  0  0  0
   -0.8579   26.9384    7.6164 H   0  0  0  0  0  0  0  0  0  0  0  0
    0.4156   26.1461    7.6407 H   0  0  0  0  0  0  0  0  0  0  0  0
   -0.3890   24.7750    5.0966 H   0  0  0  0  0  0  0  0  0  0  0  0
    1.4124   25.0750    7.0669 H   0  0  0  0  0  0  0  0  0  0  0  0
    0.8849   23.9836    5.1202 H   0  0  0  0  0  0  0  0  0  0  0  0
    1.9409   23.3354    5.1624 H   0  0  0  0  0  0  0  0  0  0  0  0
    2.4384   25.6654    8.7650 H   0  0  0  0  0  0  0  0  0  0  0  0
    2.0220   25.0081    7.5077 H   0  0  0  0  0  0  0  0  0  0  0  0
    4.1311   25.3143    9.7658 H   0  0  0  0  0  0  0  0  0  0  0  0
    6.2463   23.3518    8.9446 H   0  0  0  0  0  0  0  0  0  0  0  0
    5.1325   21.7265    5.7621 H   0  0  0  0  0  0  0  0  0  0  0  0
    6.1740   22.1994    7.3146 H   0  0  0  0  0  0  0  0  0  0  0  0
    2.6312   22.6950    4.8944 H   0  0  0  0  0  0  0  0  0  0  0  0
    4.3293   21.8389    5.2135 H   0  0  0  0  0  0  0  0  0  0  0  0
  1  2  2  3
  2  3  1  0
  3  4  1  0
  4  5  1  0
  5  6  1  0
  6  7  1  0
  7  8  1  0
  8  9  2  3
  8 10  1  0
 10 11  1  0
 11 12  1  0
 12 13  1  0
 13 14  1  0
 14 15  1  0
 15 16  2  0
 16 17  1  0
 17 18  1  0
  5  3  1  0
 18 13  1  0
  7  5  1  0
  1 19  1  0
  1 20  1  0
  2 21  1  0
  3 22  1  0
  4 23  1  0
  4 24  1  0
  6 25  1  0
  6 26  1  0
  7 27  1  0
  9 28  1  0
  9 29  1  0
 10 30  1  0
 10 31  1  0
 11 32  1  0
 11 33  1  0
 12 34  1  0
 12 35  1  0
 13 36  1  0
 14 37  1  0
 14 38  1  0
 15 39  1  0
 16 40  1  0
 17 41  1  0
 17 42  1  0
 18 43  1  0
 18 44  1  0
M  END
