
     RDKit          2D

 45 48  0  0  0  0  0  0  0  0999 V2000
   11.6394  -14.8339    1.0740 F   0  0  0  0  0  0  0  0  0  0  0  0
   11.8238  -16.3223    1.1031 C   0  0  0  0  0  0  0  0  0  0  0  0
   12.0083  -17.8106    1.1321 C   0  0  0  0  0  0  0  0  0  0  0  0
   12.0828  -19.0068    2.0341 C   0  0  0  0  0  0  0  0  0  0  0  0
   12.2672  -20.4952    2.0630 C   0  0  0  0  0  0  0  0  0  0  0  0
   12.4911  -21.7071    1.2080 C   0  0  0  0  0  0  0  0  0  0  0  0
   12.6979  -23.1657    0.9256 C   0  0  0  0  0  0  0  0  0  0  0  0
   12.8756  -23.6383   -0.4868 C   0  0  0  0  0  0  0  0  0  0  0  0
   12.6688  -22.1798   -0.2045 C   0  0  0  0  0  0  0  0  0  0  0  0
   12.7326  -21.7326   -1.6348 N   0  0  0  0  0  0  0  0  0  0  0  0
   12.6581  -20.5363   -2.5367 C   0  0  0  0  0  0  0  0  0  0  0  0
   12.4736  -19.0480   -2.5657 C   0  0  0  0  0  0  0  0  0  0  0  0
   12.6514  -19.5206   -3.9781 C   0  0  0  0  0  0  0  0  0  0  0  0
   12.6223  -18.5347   -5.1082 C   0  0  0  0  0  0  0  0  0  0  0  0
   12.8001  -19.0074   -6.5207 C   0  0  0  0  0  0  0  0  0  0  0  0
   12.9778  -19.4800   -7.9331 C   0  0  0  0  0  0  0  0  0  0  0  0
   13.1915  -20.4068   -9.0930 C   0  0  0  0  0  0  0  0  0  0  0  0
   13.1429  -20.9520   -7.6965 C   0  0  0  0  0  0  0  0  0  0  0  0
   12.2498  -17.8360   -1.7107 S   0  0  0  0  0  0  0  0  0  0  0  0
   12.0720  -17.3634   -0.2982 N   0  0  0  0  0  0  0  0  0  0  0  0
   11.9433  -16.3336   -0.2416 H   0  0  0  0  0  0  0  0  0  0  0  0
   11.6696  -16.1282    2.5825 H   0  0  0  0  0  0  0  0  0  0  0  0
   11.8345  -17.2335    2.3401 H   0  0  0  0  0  0  0  0  0  0  0  0
   11.8613  -17.9092    3.0321 H   0  0  0  0  0  0  0  0  0  0  0  0
   11.9933  -19.2776    3.5066 H   0  0  0  0  0  0  0  0  0  0  0  0
   12.1074  -20.1981    3.5247 H   0  0  0  0  0  0  0  0  0  0  0  0
   12.3155  -21.5745    3.1035 H   0  0  0  0  0  0  0  0  0  0  0  0
   12.4772  -22.4622    2.5039 H   0  0  0  0  0  0  0  0  0  0  0  0
   12.7269  -24.1517    2.0557 H   0  0  0  0  0  0  0  0  0  0  0  0
   13.0406  -25.1104   -0.2501 H   0  0  0  0  0  0  0  0  0  0  0  0
   13.0182  -23.7814   -1.9732 H   0  0  0  0  0  0  0  0  0  0  0  0
   12.9541  -22.8302   -2.6329 H   0  0  0  0  0  0  0  0  0  0  0  0
   12.8819  -21.7483   -3.3917 H   0  0  0  0  0  0  0  0  0  0  0  0
   12.7185  -20.4882   -3.3301 H   0  0  0  0  0  0  0  0  0  0  0  0
   12.3991  -17.8517   -3.4677 H   0  0  0  0  0  0  0  0  0  0  0  0
   12.7613  -20.2958   -4.1283 H   0  0  0  0  0  0  0  0  0  0  0  0
   12.4155  -17.0761   -4.8258 H   0  0  0  0  0  0  0  0  0  0  0  0
   12.6306  -17.5505   -6.8353 H   0  0  0  0  0  0  0  0  0  0  0  0
   12.9490  -20.4170   -6.0303 H   0  0  0  0  0  0  0  0  0  0  0  0
   12.8746  -18.1722   -8.6604 H   0  0  0  0  0  0  0  0  0  0  0  0
   13.1624  -19.4209  -10.2230 H   0  0  0  0  0  0  0  0  0  0  0  0
   13.4152  -21.6760   -9.8604 H   0  0  0  0  0  0  0  0  0  0  0  0
   13.3497  -22.4106   -7.9789 H   0  0  0  0  0  0  0  0  0  0  0  0
   13.0463  -21.1717   -6.2157 H   0  0  0  0  0  0  0  0  0  0  0  0
   11.9045  -15.8878   -0.5092 H   0  0  0  0  0  0  0  0  0  0  0  0
  1  2  1  0
  2  3  1  0
  3  4  1  0
  4  5  1  0
  5  6  1  0
  6  7  1  0
  7  8  1  0
  8  9  1  0
  9 10  1  1
 10 11  1  0
 11 12  1  0
 12 13  1  0
 13 14  2  3
 14 15  1  0
 15 16  1  0
 16 17  1  0
 17 18  1  0
 12 19  1  0
 19 20  1  0
 20  3  1  0
  9  6  1  0
 18 16  1  0
  9  7  1  0
  2 21  1  0
  2 22  1  0
  3 23  1  6
  4 24  1  0
  4 25  1  0
  5 26  1  0
  5 27  1  0
  6 28  1  6
  7 29  1  1
  8 30  1  0
  8 31  1  0
 10 32  1  0
 11 33  1  0
 11 34  1  0
 12 35  1  1
 13 36  1  0
 14 37  1  0
 15 38  1  0
 15 39  1  0
 16 40  1  0
 17 41  1  0
 17 42  1  0
 18 43  1  0
 18 44  1  0
 20 45  1  0
M  END
