
     RDKit          2D

 20 20  0  0  0  0  0  0  0  0999 V2000
   -2.9906   24.0302    3.4899 C   0  0  0  0  0  0  0  0  0  0  0  0
   -2.7585   22.6513    2.9472 C   0  0  0  0  0  0  0  0  0  0  0  0
   -2.5265   21.2723    2.4045 C   0  0  0  0  0  0  0  0  0  0  0  0
   -2.2944   19.8933    1.8618 C   0  0  0  0  0  0  0  0  0  0  0  0
   -2.0623   18.5143    1.3191 C   0  0  0  0  0  0  0  0  0  0  0  0
   -2.9809   18.8115    0.1710 O   0  0  0  0  0  0  0  0  0  0  0  0
   -3.2130   20.1906    0.7138 C   0  0  0  0  0  0  0  0  0  0  0  0
   -4.1315   20.4877   -0.4343 O   0  0  0  0  0  0  0  0  0  0  0  0
   -3.2227   25.4092    4.0327 H   0  0  0  0  0  0  0  0  0  0  0  0
   -3.9078   24.3281    2.3411 H   0  0  0  0  0  0  0  0  0  0  0  0
   -2.0734   23.7324    4.6389 H   0  0  0  0  0  0  0  0  0  0  0  0
   -3.6755   22.9492    1.7981 H   0  0  0  0  0  0  0  0  0  0  0  0
   -1.8416   22.3534    4.0963 H   0  0  0  0  0  0  0  0  0  0  0  0
   -3.0812   21.5459    1.7705 H   0  0  0  0  0  0  0  0  0  0  0  0
   -1.6085   20.9748    3.5529 H   0  0  0  0  0  0  0  0  0  0  0  0
   -1.3758   19.5960    3.0098 H   0  0  0  0  0  0  0  0  0  0  0  0
   -1.1438   18.2171    2.4671 H   0  0  0  0  0  0  0  0  0  0  0  0
   -1.8303   17.1353    0.7763 H   0  0  0  0  0  0  0  0  0  0  0  0
   -3.4150   21.0201    0.9492 H   0  0  0  0  0  0  0  0  0  0  0  0
   -4.7922   21.8304   -0.5379 H   0  0  0  0  0  0  0  0  0  0  0  0
  1  2  1  0
  2  3  1  0
  3  4  1  0
  4  5  1  0
  5  6  1  0
  6  7  1  0
  7  8  1  0
  7  4  1  0
  1  9  1  0
  1 10  1  0
  1 11  1  0
  2 12  1  0
  2 13  1  0
  3 14  1  0
  3 15  1  0
  4 16  1  0
  5 17  1  0
  5 18  1  0
  7 19  1  0
  8 20  1  0
M  END
