
     RDKit          2D

 44 46  0  0  0  0  0  0  0  0999 V2000
   20.3756  -20.0212  -10.8140 C   0  0  0  0  0  0  0  0  0  0  0  0
   19.1852  -19.5863  -10.0115 C   0  0  0  0  0  0  0  0  0  0  0  0
   17.9948  -19.1516   -9.2091 C   0  0  0  0  0  0  0  0  0  0  0  0
   18.0599  -18.1194  -10.2956 C   0  0  0  0  0  0  0  0  0  0  0  0
   17.1576  -16.9431  -10.5233 C   0  0  0  0  0  0  0  0  0  0  0  0
   15.9672  -16.5083   -9.7209 C   0  0  0  0  0  0  0  0  0  0  0  0
   15.3852  -17.1424   -8.4925 C   0  0  0  0  0  0  0  0  0  0  0  0
   15.8499  -18.3681   -7.7631 N   0  0  0  0  0  0  0  0  0  0  0  0
   15.0469  -18.7500   -6.5550 C   0  0  0  0  0  0  0  0  0  0  0  0
   14.2440  -19.1320   -5.3470 C   0  0  0  0  0  0  0  0  0  0  0  0
   13.4410  -19.5140   -4.1389 N   0  0  0  0  0  0  0  0  0  0  0  0
   13.8098  -18.9700   -2.7905 C   0  0  0  0  0  0  0  0  0  0  0  0
   13.0337  -17.6929   -2.6616 C   0  0  0  0  0  0  0  0  0  0  0  0
   13.6235  -17.4720   -1.3002 C   0  0  0  0  0  0  0  0  0  0  0  0
   14.3996  -18.7490   -1.4291 C   0  0  0  0  0  0  0  0  0  0  0  0
   14.7769  -19.9655   -2.2215 C   0  0  0  0  0  0  0  0  0  0  0  0
   17.0112  -19.2622   -8.0819 N   0  0  0  0  0  0  0  0  0  0  0  0
   21.5659  -20.4559  -11.6165 H   0  0  0  0  0  0  0  0  0  0  0  0
   20.1606  -18.8729  -11.7549 H   0  0  0  0  0  0  0  0  0  0  0  0
   20.5905  -21.1694   -9.8730 H   0  0  0  0  0  0  0  0  0  0  0  0
   19.1549  -19.0032  -10.5541 H   0  0  0  0  0  0  0  0  0  0  0  0
   19.3889  -20.7454   -9.0814 H   0  0  0  0  0  0  0  0  0  0  0  0
   18.4594  -20.3771   -8.4797 H   0  0  0  0  0  0  0  0  0  0  0  0
   18.7667  -17.6194  -11.5206 H   0  0  0  0  0  0  0  0  0  0  0  0
   18.6941  -18.5357  -10.5408 H   0  0  0  0  0  0  0  0  0  0  0  0
   16.8324  -15.7469  -11.3679 H   0  0  0  0  0  0  0  0  0  0  0  0
   18.0484  -16.6831  -11.7018 H   0  0  0  0  0  0  0  0  0  0  0  0
   14.8549  -15.5166   -9.5491 H   0  0  0  0  0  0  0  0  0  0  0  0
   15.8848  -15.4008  -10.7292 H   0  0  0  0  0  0  0  0  0  0  0  0
   14.3235  -17.1021   -7.4337 H   0  0  0  0  0  0  0  0  0  0  0  0
   14.3917  -16.0214   -8.5713 H   0  0  0  0  0  0  0  0  0  0  0  0
   13.7334  -18.2009   -7.0274 H   0  0  0  0  0  0  0  0  0  0  0  0
   16.2717  -19.3502   -5.9308 H   0  0  0  0  0  0  0  0  0  0  0  0
   13.0515  -18.4210   -5.9148 H   0  0  0  0  0  0  0  0  0  0  0  0
   15.5255  -19.7912   -4.9306 H   0  0  0  0  0  0  0  0  0  0  0  0
   12.2694  -20.4399   -4.2792 H   0  0  0  0  0  0  0  0  0  0  0  0
   12.2575  -16.4158   -2.5326 H   0  0  0  0  0  0  0  0  0  0  0  0
   12.4439  -17.9139   -4.0230 H   0  0  0  0  0  0  0  0  0  0  0  0
   14.2132  -17.2510    0.0611 H   0  0  0  0  0  0  0  0  0  0  0  0
   12.8473  -16.1949   -1.1712 H   0  0  0  0  0  0  0  0  0  0  0  0
   15.1702  -18.8661   -0.1475 H   0  0  0  0  0  0  0  0  0  0  0  0
   15.7276  -20.6171   -1.2615 H   0  0  0  0  0  0  0  0  0  0  0  0
   14.9423  -21.0502   -3.2442 H   0  0  0  0  0  0  0  0  0  0  0  0
   17.2161  -20.4201   -7.1507 H   0  0  0  0  0  0  0  0  0  0  0  0
  1  2  1  0
  2  3  1  0
  3  4  1  0
  4  5  1  0
  5  6  1  0
  6  7  1  0
  7  8  1  0
  8  9  1  0
  9 10  1  0
 10 11  1  0
 11 12  1  0
 12 13  1  0
 13 14  1  0
 14 15  1  0
 15 16  1  0
  8 17  1  0
 17  3  1  0
 15 12  1  0
 16 12  1  0
  1 18  1  0
  1 19  1  0
  1 20  1  0
  2 21  1  0
  2 22  1  0
  3 23  1  0
  4 24  1  0
  4 25  1  0
  5 26  1  0
  5 27  1  0
  6 28  1  0
  6 29  1  0
  7 30  1  0
  7 31  1  0
  9 32  1  0
  9 33  1  0
 10 34  1  0
 10 35  1  0
 11 36  1  0
 13 37  1  0
 13 38  1  0
 14 39  1  0
 14 40  1  0
 15 41  1  0
 16 42  1  0
 16 43  1  0
 17 44  1  0
M  END
