
     RDKit          2D

101106  0  0  0  0  0  0  0  0999 V2000
   -3.0981   21.1956    7.8100 C   0  0  0  0  0  0  0  0  0  0  0  0
   -2.4194   22.5299    7.7164 C   0  0  0  0  0  0  0  0  0  0  0  0
   -1.7407   23.8643    7.6227 C   0  0  0  0  0  0  0  0  0  0  0  0
   -1.0619   25.1986    7.5290 C   0  0  0  0  0  0  0  0  0  0  0  0
   -0.3832   26.5330    7.4354 C   0  0  0  0  0  0  0  0  0  0  0  0
   -0.0635   26.1452    6.0221 C   0  0  0  0  0  0  0  0  0  0  0  0
   -0.8216   24.9553    6.5314 C   0  0  0  0  0  0  0  0  0  0  0  0
   -1.5797   23.7653    7.0407 C   0  0  0  0  0  0  0  0  0  0  0  0
   -2.3377   22.5755    7.5500 C   0  0  0  0  0  0  0  0  0  0  0  0
   -0.6733   24.2891    5.1957 C   0  0  0  0  0  0  0  0  0  0  0  0
   -0.5249   23.6229    3.8599 C   0  0  0  0  0  0  0  0  0  0  0  0
    0.6867   26.9269    4.9846 O   0  0  0  0  0  0  0  0  0  0  0  0
    1.3024   28.2894    5.1043 C   0  0  0  0  0  0  0  0  0  0  0  0
    1.6221   27.9016    3.6910 C   0  0  0  0  0  0  0  0  0  0  0  0
    0.9837   26.5451    3.6423 C   0  0  0  0  0  0  0  0  0  0  0  0
    2.1635   27.9849    2.2946 C   0  0  0  0  0  0  0  0  0  0  0  0
    1.7130   26.6573    1.7610 C   0  0  0  0  0  0  0  0  0  0  0  0
    1.2627   25.3298    1.2274 C   0  0  0  0  0  0  0  0  0  0  0  0
    2.3407   26.9767    0.4365 C   0  0  0  0  0  0  0  0  0  0  0  0
    2.9684   27.2961   -0.8878 C   0  0  0  0  0  0  0  0  0  0  0  0
    3.6594   28.6116   -1.0925 C   0  0  0  0  0  0  0  0  0  0  0  0
    3.5961   27.6155   -2.2122 As  0  0  0  0  0  3  0  0  0  0  0  0
    2.9050   26.3000   -2.0075 C   0  0  0  0  0  0  0  0  0  0  0  0
    2.1442   25.1975   -1.3325 O   0  0  0  0  0  0  0  0  0  0  0  0
    3.1059   25.6868   -3.3616 C   0  0  0  0  0  0  0  0  0  0  0  0
    3.3067   25.0735   -4.7158 O   0  0  0  0  0  0  0  0  0  0  0  0
    3.6435   26.9907   -3.8724 O   0  0  0  0  0  0  0  0  0  0  0  0
    2.3715   29.1234    3.2488 C   0  0  0  0  0  0  0  0  0  0  0  0
    3.1415   30.0632    2.3691 O   0  0  0  0  0  0  0  0  0  0  0  0
    2.3121   29.9356    4.5086 O   0  0  0  0  0  0  0  0  0  0  0  0
    1.3202   29.2068    6.2910 C   0  0  0  0  0  0  0  0  0  0  0  0
    0.7264   28.9882    7.6511 C   0  0  0  0  0  0  0  0  0  0  0  0
    1.3423   30.3507    7.7707 O   0  0  0  0  0  0  0  0  0  0  0  0
   -0.0316   27.7983    8.1603 N   0  0  0  0  0  0  0  0  0  0  0  0
   -0.8043   26.7214    8.8627 C   0  0  0  0  0  0  0  0  0  0  0  0
   -1.5166   25.4225    9.0977 C   0  0  0  0  0  0  0  0  0  0  0  0
   -1.8051   25.8362   10.5103 C   0  0  0  0  0  0  0  0  0  0  0  0
   -2.5174   24.5372   10.7453 C   0  0  0  0  0  0  0  0  0  0  0  0
   -3.2298   23.2383   10.9804 C   0  0  0  0  0  0  0  0  0  0  0  0
   -2.2290   24.1235    9.3327 C   0  0  0  0  0  0  0  0  0  0  0  0
   -1.9405   23.7097    7.9200 N   0  0  0  0  0  0  0  0  0  0  0  0
   -2.4129   22.3777    7.4173 S   0  0  0  0  0  4  0  0  0  0  0  0
   -2.1245   21.9640    6.0047 Si  0  0  0  0  0  5  0  0  0  0  0  0
   -3.7769   19.8611    7.9036 H   0  0  0  0  0  0  0  0  0  0  0  0
   -3.4674   21.4834    9.2350 H   0  0  0  0  0  0  0  0  0  0  0  0
   -2.8144   20.7472    6.4070 H   0  0  0  0  0  0  0  0  0  0  0  0
   -2.9422   22.4864    9.1216 H   0  0  0  0  0  0  0  0  0  0  0  0
   -3.0644   22.1576    9.0185 H   0  0  0  0  0  0  0  0  0  0  0  0
   -1.4560   23.4155    6.2200 H   0  0  0  0  0  0  0  0  0  0  0  0
   -2.3295   23.6551    8.9863 H   0  0  0  0  0  0  0  0  0  0  0  0
   -1.5881   25.1568    8.9332 H   0  0  0  0  0  0  0  0  0  0  0  0
   -0.8643   24.5947    6.1703 H   0  0  0  0  0  0  0  0  0  0  0  0
    0.0132   25.3579    4.7475 H   0  0  0  0  0  0  0  0  0  0  0  0
   -1.2318   25.1507    7.9609 H   0  0  0  0  0  0  0  0  0  0  0  0
   -1.3392   23.2487    5.6531 H   0  0  0  0  0  0  0  0  0  0  0  0
   -1.4472   24.8143    8.1048 H   0  0  0  0  0  0  0  0  0  0  0  0
   -3.0713   21.3128    7.8930 H   0  0  0  0  0  0  0  0  0  0  0  0
   -2.0040   22.2139    6.1330 H   0  0  0  0  0  0  0  0  0  0  0  0
   -2.3045   23.5129    8.7205 H   0  0  0  0  0  0  0  0  0  0  0  0
   -1.3260   22.9386    5.1930 H   0  0  0  0  0  0  0  0  0  0  0  0
    0.0954   25.3898    4.5266 H   0  0  0  0  0  0  0  0  0  0  0  0
   -0.3766   22.9567    2.5242 H   0  0  0  0  0  0  0  0  0  0  0  0
   -1.2795   22.4312    4.3705 H   0  0  0  0  0  0  0  0  0  0  0  0
    0.2420   24.7244    3.1904 H   0  0  0  0  0  0  0  0  0  0  0  0
    2.0360   29.5521    4.7613 H   0  0  0  0  0  0  0  0  0  0  0  0
    0.4034   25.1799    3.4202 H   0  0  0  0  0  0  0  0  0  0  0  0
    1.2533   26.0669    2.2465 H   0  0  0  0  0  0  0  0  0  0  0  0
    0.4051   26.3669    5.0148 H   0  0  0  0  0  0  0  0  0  0  0  0
    2.8968   28.6778    1.1846 H   0  0  0  0  0  0  0  0  0  0  0  0
    0.9951   26.0262    2.9169 H   0  0  0  0  0  0  0  0  0  0  0  0
    0.8123   24.0023    0.6938 H   0  0  0  0  0  0  0  0  0  0  0  0
    1.8402   25.4804   -0.1488 H   0  0  0  0  0  0  0  0  0  0  0  0
    0.6255   25.0151    2.5483 H   0  0  0  0  0  0  0  0  0  0  0  0
    1.9732   25.6966   -0.2534 H   0  0  0  0  0  0  0  0  0  0  0  0
    2.8613   28.3347    0.8037 H   0  0  0  0  0  0  0  0  0  0  0  0
    3.5500   29.3699    0.1970 H   0  0  0  0  0  0  0  0  0  0  0  0
    4.4202   29.7142   -1.7675 H   0  0  0  0  0  0  0  0  0  0  0  0
    1.7034   25.3539    0.0927 H   0  0  0  0  0  0  0  0  0  0  0  0
    2.5682   24.3830   -2.8509 H   0  0  0  0  0  0  0  0  0  0  0  0
    4.0455   25.8301   -5.7796 H   0  0  0  0  0  0  0  0  0  0  0  0
    3.7332   28.1752   -2.9565 H   0  0  0  0  0  0  0  0  0  0  0  0
    3.5447   29.8379    0.9420 H   0  0  0  0  0  0  0  0  0  0  0  0
    2.9505   31.2920    4.5572 H   0  0  0  0  0  0  0  0  0  0  0  0
    2.0884   30.3377    5.6739 H   0  0  0  0  0  0  0  0  0  0  0  0
    1.8281   30.5586    6.6969 H   0  0  0  0  0  0  0  0  0  0  0  0
    0.4068   29.3760    9.0643 H   0  0  0  0  0  0  0  0  0  0  0  0
    1.2445   31.1072    9.0623 H   0  0  0  0  0  0  0  0  0  0  0  0
   -0.8848   27.5031   10.1404 H   0  0  0  0  0  0  0  0  0  0  0  0
   -1.4091   24.7066    7.7839 H   0  0  0  0  0  0  0  0  0  0  0  0
   -2.0936   26.2500   11.9230 H   0  0  0  0  0  0  0  0  0  0  0  0
   -1.1332   27.1759   10.4493 H   0  0  0  0  0  0  0  0  0  0  0  0
   -2.8059   24.9510   12.1579 H   0  0  0  0  0  0  0  0  0  0  0  0
   -3.9422   21.9393   11.2153 H   0  0  0  0  0  0  0  0  0  0  0  0
   -2.8293   23.2800   12.4253 H   0  0  0  0  0  0  0  0  0  0  0  0
   -3.8590   22.7337    9.7156 H   0  0  0  0  0  0  0  0  0  0  0  0
   -2.9711   22.8846    9.7382 H   0  0  0  0  0  0  0  0  0  0  0  0
   -1.3781   23.8835    6.5403 H   0  0  0  0  0  0  0  0  0  0  0  0
   -3.1614   21.1594    7.8703 H   0  0  0  0  0  0  0  0  0  0  0  0
   -1.8360   21.5502    4.5921 H   0  0  0  0  0  0  0  0  0  0  0  0
   -2.7961   20.6241    6.0658 H   0  0  0  0  0  0  0  0  0  0  0  0
   -1.3563   23.0284    5.2788 H   0  0  0  0  0  0  0  0  0  0  0  0
  1  2  1  0
  2  3  1  0
  3  4  1  0
  4  5  1  0
  5  6  1  0
  6  7  1  0
  7  8  1  0
  8  9  1  0
  7 10  1  0
 10 11  1  0
  6 12  1  0
 12 13  1  0
 13 14  1  0
 14 15  1  0
 14 16  1  0
 16 17  1  0
 17 18  1  0
 17 19  1  0
 19 20  1  0
 20 21  1  0
 21 22  1  0
 22 23  1  0
 23 24  1  0
 23 25  1  0
 25 26  1  0
 25 27  1  0
 16 28  1  0
 28 29  1  0
 28 30  1  0
 13 31  1  0
 31 32  1  0
 32 33  1  0
 32 34  1  0
 34 35  1  0
 35 36  1  0
 36 37  1  0
 37 38  1  0
 38 39  1  0
 38 40  1  0
 40 41  1  0
 41 42  1  0
 42 43  2  3
 34  5  1  0
 40 36  1  0
 35  5  1  0
 28 14  1  0
 22 20  1  0
 23 20  1  0
  1 44  1  0
  1 45  1  0
  1 46  1  0
  2 47  1  0
  2 48  1  0
  3 49  1  0
  3 50  1  0
  4 51  1  0
  4 52  1  0
  6 53  1  0
  7 54  1  0
  8 55  1  0
  8 56  1  0
  9 57  1  0
  9 58  1  0
  9 59  1  0
 10 60  1  0
 10 61  1  0
 11 62  1  0
 11 63  1  0
 11 64  1  0
 13 65  1  0
 15 66  1  0
 15 67  1  0
 15 68  1  0
 16 69  1  0
 17 70  1  0
 18 71  1  0
 18 72  1  0
 18 73  1  0
 19 74  1  0
 19 75  1  0
 21 76  1  0
 21 77  1  0
 24 78  1  0
 25 79  1  0
 26 80  1  0
 27 81  1  0
 29 82  1  0
 30 83  1  0
 31 84  1  0
 31 85  1  0
 32 86  1  0
 33 87  1  0
 35 88  1  0
 36 89  1  0
 37 90  1  0
 37 91  1  0
 38 92  1  0
 39 93  1  0
 39 94  1  0
 39 95  1  0
 40 96  1  0
 41 97  1  0
 42 98  1  0
 43 99  1  0
 43100  1  0
 43101  1  0
M  RAD  1  43   2
M  END
