
     RDKit          2D

 22 23  0  0  0  0  0  0  0  0999 V2000
   -4.6213   27.2189    5.8865 O   0  0  0  0  0  0  0  0  0  0  0  0
   -4.2267   27.1401    4.4415 C   0  0  0  0  0  0  0  0  0  0  0  0
   -4.2425   28.3757    3.5912 O   0  0  0  0  0  0  0  0  0  0  0  0
   -3.8164   25.8256    3.8467 C   0  0  0  0  0  0  0  0  0  0  0  0
   -3.4060   24.5111    3.2519 C   0  0  0  0  0  0  0  0  0  0  0  0
   -4.8318   24.2363    2.8753 Cl  0  0  0  0  0  0  0  0  0  0  0  0
   -2.9957   23.1966    2.6571 C   0  0  0  0  0  0  0  0  0  0  0  0
   -2.5853   21.8821    2.0623 C   0  0  0  0  0  0  0  0  0  0  0  0
   -3.9185   21.3822    1.5904 C   0  0  0  0  0  0  0  0  0  0  0  0
   -4.0206   20.0526    0.9034 C   0  0  0  0  0  0  0  0  0  0  0  0
   -2.6874   20.5526    1.3754 C   0  0  0  0  0  0  0  0  0  0  0  0
   -3.0153   29.2323    3.4902 H   0  0  0  0  0  0  0  0  0  0  0  0
   -2.3790   26.1444    4.1336 H   0  0  0  0  0  0  0  0  0  0  0  0
   -5.2537   25.5066    3.5597 H   0  0  0  0  0  0  0  0  0  0  0  0
   -1.9803   24.7858    3.6285 H   0  0  0  0  0  0  0  0  0  0  0  0
   -4.4215   22.9214    2.2814 H   0  0  0  0  0  0  0  0  0  0  0  0
   -1.5698   23.4718    3.0327 H   0  0  0  0  0  0  0  0  0  0  0  0
   -1.1096   21.9255    2.3277 H   0  0  0  0  0  0  0  0  0  0  0  0
   -5.1495   22.2119    1.8054 H   0  0  0  0  0  0  0  0  0  0  0  0
   -5.4963   20.0093    0.6381 H   0  0  0  0  0  0  0  0  0  0  0  0
   -3.6102   18.7382    0.3087 H   0  0  0  0  0  0  0  0  0  0  0  0
   -1.4564   19.7229    1.1604 H   0  0  0  0  0  0  0  0  0  0  0  0
  1  2  2  0
  2  3  1  0
  2  4  1  0
  4  5  1  0
  5  6  1  0
  5  7  1  0
  7  8  1  0
  8  9  1  0
  9 10  1  0
 10 11  1  0
 11  8  1  0
 11  9  1  0
  3 12  1  0
  4 13  1  0
  4 14  1  0
  5 15  1  0
  7 16  1  0
  7 17  1  0
  8 18  1  0
  9 19  1  0
 10 20  1  0
 10 21  1  0
 11 22  1  0
M  END
