
     RDKit          2D

 74 76  0  0  0  0  0  0  0  0999 V2000
   -4.0063   18.1908   14.3548 C   0  0  0  0  0  0  0  0  0  0  0  0
   -2.9090   19.1628   14.6726 C   0  0  0  0  0  0  0  0  0  0  0  0
   -2.0443   19.7036   13.5727 C   0  0  0  0  0  0  0  0  0  0  0  0
   -1.0900   18.5617   13.7616 O   0  0  0  0  0  0  0  0  0  0  0  0
   -1.1796   20.2444   12.4728 C   0  0  0  0  0  0  0  0  0  0  0  0
   -0.3148   20.7852   11.3729 C   0  0  0  0  0  0  0  0  0  0  0  0
    0.5500   21.3260   10.2730 C   0  0  0  0  0  0  0  0  0  0  0  0
    1.4147   21.8667    9.1731 C   0  0  0  0  0  0  0  0  0  0  0  0
    2.2794   22.4076    8.0732 C   0  0  0  0  0  0  0  0  0  0  0  0
    3.1442   22.9484    6.9733 C   0  0  0  0  0  0  0  0  0  0  0  0
    1.3238   23.5480    7.8827 C   0  0  0  0  0  0  0  0  0  0  0  0
    0.3682   24.6884    7.6920 C   0  0  0  0  0  0  0  0  0  0  0  0
   -0.6492   24.3539    8.7423 C   0  0  0  0  0  0  0  0  0  0  0  0
   -0.8255   25.5750    7.8892 C   0  0  0  0  0  0  0  0  0  0  0  0
   -0.5545   26.6134    6.8412 C   0  0  0  0  0  0  0  0  0  0  0  0
   -1.8141   27.3311    7.2266 C   0  0  0  0  0  0  0  0  0  0  0  0
   -1.5432   28.3695    6.1786 C   0  0  0  0  0  0  0  0  0  0  0  0
   -1.2721   29.4079    5.1306 C   0  0  0  0  0  0  0  0  0  0  0  0
    0.0149   28.8811    4.5686 C   0  0  0  0  0  0  0  0  0  0  0  0
    1.3020   28.3543    4.0066 C   0  0  0  0  0  0  0  0  0  0  0  0
    2.5890   27.8274    3.4446 C   0  0  0  0  0  0  0  0  0  0  0  0
    3.1909   26.5704    3.9993 C   0  0  0  0  0  0  0  0  0  0  0  0
    3.2743   28.5577    2.3277 C   0  0  0  0  0  0  0  0  0  0  0  0
    3.9596   29.2879    1.2109 C   0  0  0  0  0  0  0  0  0  0  0  0
    4.6449   30.0180    0.0942 C   0  0  0  0  0  0  0  0  0  0  0  0
   -1.4482   30.6293    4.2779 C   0  0  0  0  0  0  0  0  0  0  0  0
   -2.4651   30.2953    5.3288 C   0  0  0  0  0  0  0  0  0  0  0  0
   -0.2836   27.6519    5.7932 C   0  0  0  0  0  0  0  0  0  0  0  0
    0.7987   27.8787    4.7797 N   0  0  0  0  0  0  0  0  0  0  0  0
   -4.8711   17.6500   15.4546 H   0  0  0  0  0  0  0  0  0  0  0  0
   -4.2389   17.7596   12.9370 H   0  0  0  0  0  0  0  0  0  0  0  0
   -2.6764   19.5940   16.0903 H   0  0  0  0  0  0  0  0  0  0  0  0
   -2.9985   20.8454   13.3839 H   0  0  0  0  0  0  0  0  0  0  0  0
    0.2969   18.4425   13.2028 H   0  0  0  0  0  0  0  0  0  0  0  0
   -2.1346   21.3852   12.2828 H   0  0  0  0  0  0  0  0  0  0  0  0
   -0.1261   19.1779   12.5273 H   0  0  0  0  0  0  0  0  0  0  0  0
    0.8902   20.1640   12.0149 H   0  0  0  0  0  0  0  0  0  0  0  0
   -1.5198   21.4064   10.7309 H   0  0  0  0  0  0  0  0  0  0  0  0
   -0.5313   21.9025    9.7064 H   0  0  0  0  0  0  0  0  0  0  0  0
    1.7513   20.6854   10.9026 H   0  0  0  0  0  0  0  0  0  0  0  0
    0.6694   22.5073    9.2269 H   0  0  0  0  0  0  0  0  0  0  0  0
    2.3696   20.7258    9.3629 H   0  0  0  0  0  0  0  0  0  0  0  0
    3.2350   21.2672    8.2638 H   0  0  0  0  0  0  0  0  0  0  0  0
    4.0089   23.4891    5.8735 H   0  0  0  0  0  0  0  0  0  0  0  0
    4.1043   21.8128    7.1698 H   0  0  0  0  0  0  0  0  0  0  0  0
    2.6437   23.6528    6.7790 H   0  0  0  0  0  0  0  0  0  0  0  0
    0.7566   23.1932    8.6045 H   0  0  0  0  0  0  0  0  0  0  0  0
    1.7617   23.9469    7.2241 H   0  0  0  0  0  0  0  0  0  0  0  0
    1.1002   25.2280    6.6944 H   0  0  0  0  0  0  0  0  0  0  0  0
   -1.8758   24.4558    9.5997 H   0  0  0  0  0  0  0  0  0  0  0  0
   -0.3714   23.2310    9.4382 H   0  0  0  0  0  0  0  0  0  0  0  0
   -1.7616   25.8537    8.3810 H   0  0  0  0  0  0  0  0  0  0  0  0
    0.6003   26.0863    6.3820 H   0  0  0  0  0  0  0  0  0  0  0  0
   -3.0737   28.0487    7.6120 H   0  0  0  0  0  0  0  0  0  0  0  0
   -2.1221   26.6435    8.0192 H   0  0  0  0  0  0  0  0  0  0  0  0
   -2.8263   28.9552    6.6889 H   0  0  0  0  0  0  0  0  0  0  0  0
    0.2269   29.9632    3.5517 H   0  0  0  0  0  0  0  0  0  0  0  0
    0.2468   27.7578    5.2806 H   0  0  0  0  0  0  0  0  0  0  0  0
    1.2133   26.8727    4.2236 H   0  0  0  0  0  0  0  0  0  0  0  0
    1.7143   29.7498    3.6427 H   0  0  0  0  0  0  0  0  0  0  0  0
    4.4779   26.0436    3.4372 H   0  0  0  0  0  0  0  0  0  0  0  0
    2.5055   25.8402    5.1161 H   0  0  0  0  0  0  0  0  0  0  0  0
    4.3562   27.5188    2.3123 H   0  0  0  0  0  0  0  0  0  0  0  0
    2.1925   29.5966    2.3432 H   0  0  0  0  0  0  0  0  0  0  0  0
    5.0315   28.2390    1.1831 H   0  0  0  0  0  0  0  0  0  0  0  0
    2.8876   30.3367    1.2389 H   0  0  0  0  0  0  0  0  0  0  0  0
    5.3302   30.7482   -1.0226 H   0  0  0  0  0  0  0  0  0  0  0  0
    3.5629   31.0569    0.1094 H   0  0  0  0  0  0  0  0  0  0  0  0
    5.7269   28.9792    0.0790 H   0  0  0  0  0  0  0  0  0  0  0  0
   -0.2796   30.6808    3.3389 H   0  0  0  0  0  0  0  0  0  0  0  0
   -2.0500   31.8863    3.7232 H   0  0  0  0  0  0  0  0  0  0  0  0
   -3.4201   31.4364    5.1390 H   0  0  0  0  0  0  0  0  0  0  0  0
   -3.2783   29.6962    6.4377 H   0  0  0  0  0  0  0  0  0  0  0  0
    0.7344   29.0675    3.8672 H   0  0  0  0  0  0  0  0  0  0  0  0
  1  2  2  3
  2  3  1  0
  3  4  1  0
  3  5  1  0
  5  6  1  0
  6  7  1  0
  7  8  1  0
  8  9  1  0
  9 10  1  0
  9 11  1  0
 11 12  1  0
 12 13  1  0
 13 14  1  0
 14 15  1  0
 15 16  1  0
 16 17  1  0
 17 18  1  0
 18 19  1  0
 19 20  1  0
 20 21  1  0
 21 22  2  3
 21 23  1  0
 23 24  1  0
 24 25  1  0
 18 26  1  0
 26 27  1  0
 17 28  1  0
 28 29  2  3
 14 12  1  0
 28 15  1  0
 27 18  1  0
  1 30  1  0
  1 31  1  0
  2 32  1  0
  3 33  1  0
  4 34  1  0
  5 35  1  0
  5 36  1  0
  6 37  1  0
  6 38  1  0
  7 39  1  0
  7 40  1  0
  8 41  1  0
  8 42  1  0
  9 43  1  0
 10 44  1  0
 10 45  1  0
 10 46  1  0
 11 47  1  0
 11 48  1  0
 12 49  1  0
 13 50  1  0
 13 51  1  0
 14 52  1  0
 15 53  1  0
 16 54  1  0
 16 55  1  0
 17 56  1  0
 19 57  1  0
 19 58  1  0
 20 59  1  0
 20 60  1  0
 22 61  1  0
 22 62  1  0
 23 63  1  0
 23 64  1  0
 24 65  1  0
 24 66  1  0
 25 67  1  0
 25 68  1  0
 25 69  1  0
 26 70  1  0
 26 71  1  0
 27 72  1  0
 27 73  1  0
 29 74  1  0
M  END
