
     RDKit          2D

 61 65  0  0  0  0  0  0  0  0999 V2000
   19.8701  -19.8838   -6.2793 C   0  0  0  0  0  0  0  0  0  0  0  0
   19.8002  -20.2267   -7.7379 C   0  0  0  0  0  0  0  0  0  0  0  0
   20.5273  -19.9481   -9.0200 C   0  0  0  0  0  0  0  0  0  0  0  0
   20.6694  -20.1395  -10.5009 C   0  0  0  0  0  0  0  0  0  0  0  0
   20.1882  -20.7497  -11.7839 C   0  0  0  0  0  0  0  0  0  0  0  0
   21.4028  -19.9077  -12.0401 C   0  0  0  0  0  0  0  0  0  0  0  0
   19.2129  -21.6152  -12.5252 C   0  0  0  0  0  0  0  0  0  0  0  0
   20.2297  -21.0574  -13.4764 O   0  0  0  0  0  0  0  0  0  0  0  0
   18.0046  -22.5040  -12.5262 C   0  0  0  0  0  0  0  0  0  0  0  0
   17.0291  -23.3695  -13.2675 C   0  0  0  0  0  0  0  0  0  0  0  0
   15.9117  -24.0435  -12.5279 O   0  0  0  0  0  0  0  0  0  0  0  0
   16.8871  -23.1781  -11.7866 C   0  0  0  0  0  0  0  0  0  0  0  0
   16.1599  -23.4567  -10.5046 C   0  0  0  0  0  0  0  0  0  0  0  0
   16.0179  -23.2653   -9.0236 C   0  0  0  0  0  0  0  0  0  0  0  0
   16.4990  -22.6550   -7.7406 C   0  0  0  0  0  0  0  0  0  0  0  0
   15.2845  -23.4971   -7.4844 C   0  0  0  0  0  0  0  0  0  0  0  0
   14.0699  -24.3392   -7.2282 C   0  0  0  0  0  0  0  0  0  0  0  0
   12.8553  -25.1813   -6.9720 C   0  0  0  0  0  0  0  0  0  0  0  0
   14.3478  -24.2918   -5.7550 C   0  0  0  0  0  0  0  0  0  0  0  0
   14.6257  -24.2445   -4.2817 C   0  0  0  0  0  0  0  0  0  0  0  0
   14.0488  -25.5650   -3.8652 C   0  0  0  0  0  0  0  0  0  0  0  0
   14.0928  -25.9819   -2.4250 C   0  0  0  0  0  0  0  0  0  0  0  0
   14.6698  -24.6614   -2.8414 C   0  0  0  0  0  0  0  0  0  0  0  0
   17.4745  -21.7895   -6.9993 C   0  0  0  0  0  0  0  0  0  0  0  0
   18.6828  -20.9007   -6.9983 C   0  0  0  0  0  0  0  0  0  0  0  0
   19.9400  -19.5409   -4.8207 H   0  0  0  0  0  0  0  0  0  0  0  0
   21.0854  -19.0426   -6.5353 H   0  0  0  0  0  0  0  0  0  0  0  0
   18.6724  -20.6769   -5.8474 H   0  0  0  0  0  0  0  0  0  0  0  0
   20.9654  -19.3181   -7.4798 H   0  0  0  0  0  0  0  0  0  0  0  0
   21.6577  -19.0399   -8.6357 H   0  0  0  0  0  0  0  0  0  0  0  0
   21.3157  -19.6859  -10.6099 H   0  0  0  0  0  0  0  0  0  0  0  0
   20.6411  -20.6137  -12.7698 H   0  0  0  0  0  0  0  0  0  0  0  0
   22.6174  -19.0656  -12.2963 H   0  0  0  0  0  0  0  0  0  0  0  0
   21.3307  -20.2477  -13.4993 H   0  0  0  0  0  0  0  0  0  0  0  0
   21.5195  -19.6738  -11.2870 H   0  0  0  0  0  0  0  0  0  0  0  0
   19.0795  -22.0017  -13.9685 H   0  0  0  0  0  0  0  0  0  0  0  0
   20.1597  -21.4003  -14.9350 H   0  0  0  0  0  0  0  0  0  0  0  0
   18.3133  -22.5699  -13.9926 H   0  0  0  0  0  0  0  0  0  0  0  0
   17.1711  -23.5610  -14.7485 H   0  0  0  0  0  0  0  0  0  0  0  0
   15.4920  -24.1747  -11.6396 H   0  0  0  0  0  0  0  0  0  0  0  0
   14.9506  -24.2797  -10.1724 H   0  0  0  0  0  0  0  0  0  0  0  0
   14.9311  -24.1659   -9.5310 H   0  0  0  0  0  0  0  0  0  0  0  0
   14.9568  -23.8718   -8.1539 H   0  0  0  0  0  0  0  0  0  0  0  0
   16.0099  -22.7318   -6.3247 H   0  0  0  0  0  0  0  0  0  0  0  0
   15.5012  -23.0532   -6.0681 H   0  0  0  0  0  0  0  0  0  0  0  0
   15.0677  -23.9410   -8.9007 H   0  0  0  0  0  0  0  0  0  0  0  0
   13.7919  -24.3866   -8.7015 H   0  0  0  0  0  0  0  0  0  0  0  0
   11.6407  -26.0233   -6.7158 H   0  0  0  0  0  0  0  0  0  0  0  0
   12.5773  -25.2287   -8.4453 H   0  0  0  0  0  0  0  0  0  0  0  0
   12.9830  -25.2369   -5.4785 H   0  0  0  0  0  0  0  0  0  0  0  0
   13.7513  -25.6251   -5.4134 H   0  0  0  0  0  0  0  0  0  0  0  0
   15.0120  -22.9470   -5.7373 H   0  0  0  0  0  0  0  0  0  0  0  0
   15.2991  -22.9075   -4.1865 H   0  0  0  0  0  0  0  0  0  0  0  0
   13.4279  -26.4685   -4.8889 H   0  0  0  0  0  0  0  0  0  0  0  0
   13.4194  -27.3189   -2.5201 H   0  0  0  0  0  0  0  0  0  0  0  0
   14.3708  -25.9345   -0.9517 H   0  0  0  0  0  0  0  0  0  0  0  0
   15.2907  -23.7579   -1.8178 H   0  0  0  0  0  0  0  0  0  0  0  0
   16.5465  -22.2557   -5.9169 H   0  0  0  0  0  0  0  0  0  0  0  0
   17.6078  -21.4031   -5.5561 H   0  0  0  0  0  0  0  0  0  0  0  0
   18.1360  -21.0248   -5.6070 H   0  0  0  0  0  0  0  0  0  0  0  0
   19.2780  -20.2234   -5.7996 H   0  0  0  0  0  0  0  0  0  0  0  0
  1  2  1  0
  2  3  1  0
  3  4  2  0
  4  5  1  0
  5  6  1  0
  5  7  1  0
  7  8  1  0
  7  9  1  0
  9 10  1  0
 10 11  1  0
 11 12  1  0
 12 13  1  0
 13 14  1  0
 14 15  1  0
 15 16  1  0
 16 17  1  0
 17 18  1  0
 17 19  1  0
 19 20  1  0
 20 21  1  0
 21 22  1  0
 22 23  1  0
 15 24  1  0
 24 25  1  0
 25  2  1  0
 12  9  1  0
 23 20  1  0
 12 10  1  0
 23 21  1  0
  1 26  1  0
  1 27  1  0
  1 28  1  0
  2 29  1  0
  3 30  1  0
  4 31  1  0
  5 32  1  0
  6 33  1  0
  6 34  1  0
  6 35  1  0
  7 36  1  0
  8 37  1  0
  9 38  1  0
 10 39  1  0
 13 40  1  0
 13 41  1  0
 14 42  1  0
 14 43  1  0
 15 44  1  0
 16 45  1  0
 16 46  1  0
 17 47  1  0
 18 48  1  0
 18 49  1  0
 18 50  1  0
 19 51  1  0
 19 52  1  0
 20 53  1  0
 21 54  1  0
 22 55  1  0
 22 56  1  0
 23 57  1  0
 24 58  1  0
 24 59  1  0
 25 60  1  0
 25 61  1  0
M  END
