
     RDKit          2D

 32 33  0  0  0  0  0  0  0  0999 V2000
   11.8434  -20.4757   -2.3495 C   0  0  0  0  0  0  0  0  0  0  0  0
   13.3059  -20.3445   -2.6561 C   0  0  0  0  0  0  0  0  0  0  0  0
   14.7684  -20.2133   -2.9626 C   0  0  0  0  0  0  0  0  0  0  0  0
   12.9754  -19.9580   -4.0672 C   0  0  0  0  0  0  0  0  0  0  0  0
   12.6449  -19.5715   -5.4784 C   0  0  0  0  0  0  0  0  0  0  0  0
   11.1473  -19.6356   -5.4221 C   0  0  0  0  0  0  0  0  0  0  0  0
   11.8342  -19.2539   -6.6998 C   0  0  0  0  0  0  0  0  0  0  0  0
   10.6410  -19.0435   -7.5841 N   0  0  0  0  0  0  0  0  0  0  0  0
   12.9354  -18.9452   -7.6703 C   0  0  0  0  0  0  0  0  0  0  0  0
   14.0366  -18.6365   -8.6410 C   0  0  0  0  0  0  0  0  0  0  0  0
   14.7234  -18.2547   -9.9187 C   0  0  0  0  0  0  0  0  0  0  0  0
   13.2259  -18.3189   -9.8624 N   0  0  0  0  0  0  0  0  0  0  0  0
   10.3810  -20.6069   -2.0429 H   0  0  0  0  0  0  0  0  0  0  0  0
   12.1737  -20.8558   -0.9365 H   0  0  0  0  0  0  0  0  0  0  0  0
   11.4010  -20.2546   -3.2003 H   0  0  0  0  0  0  0  0  0  0  0  0
   13.6364  -20.7310   -1.2449 H   0  0  0  0  0  0  0  0  0  0  0  0
   16.2308  -20.0821   -3.2692 H   0  0  0  0  0  0  0  0  0  0  0  0
   15.0988  -20.6006   -1.5517 H   0  0  0  0  0  0  0  0  0  0  0  0
   14.6799  -19.9769   -3.8116 H   0  0  0  0  0  0  0  0  0  0  0  0
   12.0159  -20.0445   -3.8662 H   0  0  0  0  0  0  0  0  0  0  0  0
   13.8087  -19.8530   -4.3483 H   0  0  0  0  0  0  0  0  0  0  0  0
   13.9437  -19.4335   -5.8199 H   0  0  0  0  0  0  0  0  0  0  0  0
    9.7156  -19.5578   -5.8627 H   0  0  0  0  0  0  0  0  0  0  0  0
   10.6035  -20.0306   -4.0811 H   0  0  0  0  0  0  0  0  0  0  0  0
   10.8305  -18.6347   -9.0149 H   0  0  0  0  0  0  0  0  0  0  0  0
    9.2582  -19.2418   -7.0377 H   0  0  0  0  0  0  0  0  0  0  0  0
   11.9180  -18.6755   -8.7390 H   0  0  0  0  0  0  0  0  0  0  0  0
   13.9651  -19.1522   -6.8223 H   0  0  0  0  0  0  0  0  0  0  0  0
   15.2298  -18.8469   -7.7566 H   0  0  0  0  0  0  0  0  0  0  0  0
   16.1552  -18.3325   -9.4781 H   0  0  0  0  0  0  0  0  0  0  0  0
   14.9130  -17.8459  -11.3494 H   0  0  0  0  0  0  0  0  0  0  0  0
   11.8932  -18.1725  -10.5351 H   0  0  0  0  0  0  0  0  0  0  0  0
  1  2  1  0
  2  3  1  0
  2  4  1  0
  4  5  1  0
  5  6  1  0
  6  7  1  0
  7  8  1  0
  7  9  1  0
  9 10  1  0
 10 11  1  0
 11 12  1  0
  7  5  1  0
 12 10  1  0
  1 13  1  0
  1 14  1  0
  1 15  1  0
  2 16  1  0
  3 17  1  0
  3 18  1  0
  3 19  1  0
  4 20  1  0
  4 21  1  0
  5 22  1  0
  6 23  1  0
  6 24  1  0
  8 25  1  0
  8 26  1  0
  9 27  1  0
  9 28  1  0
 10 29  1  0
 11 30  1  0
 11 31  1  0
 12 32  1  0
M  END
