
     RDKit          2D

 26 28  0  0  0  0  0  0  0  0999 V2000
   -5.4579   23.6468    5.7880 C   0  0  0  0  0  0  0  0  0  0  0  0
   -4.3118   24.4936    5.3196 C   0  0  0  0  0  0  0  0  0  0  0  0
   -3.1657   25.3405    4.8511 C   0  0  0  0  0  0  0  0  0  0  0  0
   -2.6562   24.0535    4.2732 C   0  0  0  0  0  0  0  0  0  0  0  0
   -1.9070   22.9436    3.5973 C   0  0  0  0  0  0  0  0  0  0  0  0
   -1.3519   24.3371    3.5889 C   0  0  0  0  0  0  0  0  0  0  0  0
   -1.0553   25.7993    3.7439 C   0  0  0  0  0  0  0  0  0  0  0  0
   -2.1764   26.4195    4.5240 C   0  0  0  0  0  0  0  0  0  0  0  0
   -1.6212   27.8129    4.5156 C   0  0  0  0  0  0  0  0  0  0  0  0
   -2.9255   27.5293    5.1999 C   0  0  0  0  0  0  0  0  0  0  0  0
   -6.6039   22.7999    6.2564 H   0  0  0  0  0  0  0  0  0  0  0  0
   -6.0916   24.8521    6.4168 H   0  0  0  0  0  0  0  0  0  0  0  0
   -4.8241   22.4414    5.1592 H   0  0  0  0  0  0  0  0  0  0  0  0
   -4.0230   23.7263    4.9845 H   0  0  0  0  0  0  0  0  0  0  0  0
   -4.9452   25.6989    5.9488 H   0  0  0  0  0  0  0  0  0  0  0  0
   -3.8741   26.1372    5.4341 H   0  0  0  0  0  0  0  0  0  0  0  0
   -3.2823   23.4705    4.5023 H   0  0  0  0  0  0  0  0  0  0  0  0
   -2.8343   21.7974    3.8738 H   0  0  0  0  0  0  0  0  0  0  0  0
   -0.8358   22.2318    2.8253 H   0  0  0  0  0  0  0  0  0  0  0  0
   -0.1147   24.0082    2.8070 H   0  0  0  0  0  0  0  0  0  0  0  0
   -0.4919   26.8724    3.6595 H   0  0  0  0  0  0  0  0  0  0  0  0
    0.1818   25.4704    2.9620 H   0  0  0  0  0  0  0  0  0  0  0  0
   -0.5713   27.7733    3.9053 H   0  0  0  0  0  0  0  0  0  0  0  0
   -1.5049   29.2855    4.7763 H   0  0  0  0  0  0  0  0  0  0  0  0
   -3.2623   28.9035    5.6983 H   0  0  0  0  0  0  0  0  0  0  0  0
   -3.9346   27.0422    5.6698 H   0  0  0  0  0  0  0  0  0  0  0  0
  1  2  1  0
  2  3  1  0
  3  4  1  0
  4  5  1  0
  5  6  1  0
  6  7  1  0
  7  8  1  0
  8  9  1  0
  9 10  1  0
  8  3  1  0
  6  4  1  0
 10  8  1  0
  1 11  1  0
  1 12  1  0
  1 13  1  0
  2 14  1  0
  2 15  1  0
  3 16  1  0
  4 17  1  0
  5 18  1  0
  5 19  1  0
  6 20  1  0
  7 21  1  0
  7 22  1  0
  9 23  1  0
  9 24  1  0
 10 25  1  0
 10 26  1  0
M  END
