
     RDKit          2D

 53 55  0  0  0  0  0  0  0  0999 V2000
   16.7903  -28.2412   -1.6314 C   0  0  0  0  0  0  0  0  0  0  0  0
   16.3310  -27.5317   -2.8706 C   0  0  0  0  0  0  0  0  0  0  0  0
   16.5695  -26.0587   -3.0234 C   0  0  0  0  0  0  0  0  0  0  0  0
   16.8080  -24.5857   -3.1762 C   0  0  0  0  0  0  0  0  0  0  0  0
   17.0466  -23.1127   -3.3289 O   0  0  0  0  0  0  0  0  0  0  0  0
   15.7428  -26.0547   -4.2750 N   0  0  0  0  0  0  0  0  0  0  0  0
   14.2638  -25.8179   -4.1962 C   0  0  0  0  0  0  0  0  0  0  0  0
   14.3638  -25.6888   -2.7051 C   0  0  0  0  0  0  0  0  0  0  0  0
   14.1636  -25.9471   -5.6873 C   0  0  0  0  0  0  0  0  0  0  0  0
   14.0634  -26.0762   -7.1784 N   0  0  0  0  0  0  0  0  0  0  0  0
   14.2123  -24.8631   -8.0480 C   0  0  0  0  0  0  0  0  0  0  0  0
   14.3609  -23.6501   -8.9176 C   0  0  0  0  0  0  0  0  0  0  0  0
   14.5095  -22.4369   -9.7873 N   0  0  0  0  0  0  0  0  0  0  0  0
   15.8647  -22.0362  -10.2904 N   0  0  0  0  0  0  0  0  0  0  0  0
   16.0132  -20.8231  -11.1600 C   0  0  0  0  0  0  0  0  0  0  0  0
   16.1619  -19.6100  -12.0297 O   0  0  0  0  0  0  0  0  0  0  0  0
   17.6390  -19.8551  -12.1192 C   0  0  0  0  0  0  0  0  0  0  0  0
   18.9925  -19.4608  -12.6315 C   0  0  0  0  0  0  0  0  0  0  0  0
   20.1975  -20.2797  -12.2743 C   0  0  0  0  0  0  0  0  0  0  0  0
   21.4024  -21.0985  -11.9170 N   0  0  0  0  0  0  0  0  0  0  0  0
   20.0489  -21.4928  -11.4046 C   0  0  0  0  0  0  0  0  0  0  0  0
   18.6953  -21.8871  -10.8923 N   0  0  0  0  0  0  0  0  0  0  0  0
   17.4904  -21.0683  -11.2495 C   0  0  0  0  0  0  0  0  0  0  0  0
   16.5517  -29.7142   -1.4786 H   0  0  0  0  0  0  0  0  0  0  0  0
   17.4880  -27.4778   -0.5450 H   0  0  0  0  0  0  0  0  0  0  0  0
   15.9876  -28.0874   -3.3274 H   0  0  0  0  0  0  0  0  0  0  0  0
   17.3962  -26.0627   -1.7718 H   0  0  0  0  0  0  0  0  0  0  0  0
   16.1377  -24.6162   -4.5176 H   0  0  0  0  0  0  0  0  0  0  0  0
   17.5026  -24.3758   -1.8632 H   0  0  0  0  0  0  0  0  0  0  0  0
   16.5860  -22.4028   -4.5674 H   0  0  0  0  0  0  0  0  0  0  0  0
   16.3952  -26.2876   -5.6055 H   0  0  0  0  0  0  0  0  0  0  0  0
   12.7846  -25.5811   -4.1175 H   0  0  0  0  0  0  0  0  0  0  0  0
   14.4640  -25.5596   -1.2141 H   0  0  0  0  0  0  0  0  0  0  0  0
   15.7166  -25.8377   -2.0745 H   0  0  0  0  0  0  0  0  0  0  0  0
   12.8848  -25.4514   -2.6264 H   0  0  0  0  0  0  0  0  0  0  0  0
   12.6731  -26.0740   -5.5763 H   0  0  0  0  0  0  0  0  0  0  0  0
   15.6308  -25.8368   -5.9793 H   0  0  0  0  0  0  0  0  0  0  0  0
   13.8144  -27.4185   -7.7998 H   0  0  0  0  0  0  0  0  0  0  0  0
   15.6910  -25.1014   -8.1274 H   0  0  0  0  0  0  0  0  0  0  0  0
   12.7334  -24.6249   -7.9686 H   0  0  0  0  0  0  0  0  0  0  0  0
   12.8818  -23.4131   -8.8398 H   0  0  0  0  0  0  0  0  0  0  0  0
   15.8400  -23.8870   -8.9955 H   0  0  0  0  0  0  0  0  0  0  0  0
   13.3031  -21.6244  -10.1538 H   0  0  0  0  0  0  0  0  0  0  0  0
   16.9564  -22.9562   -9.8300 H   0  0  0  0  0  0  0  0  0  0  0  0
   14.5361  -20.5779  -11.0705 H   0  0  0  0  0  0  0  0  0  0  0  0
   17.2234  -18.6385  -12.8920 H   0  0  0  0  0  0  0  0  0  0  0  0
   20.0558  -18.6891  -13.3553 H   0  0  0  0  0  0  0  0  0  0  0  0
   18.3127  -18.3099  -13.3122 H   0  0  0  0  0  0  0  0  0  0  0  0
   21.0648  -19.3517  -13.0722 H   0  0  0  0  0  0  0  0  0  0  0  0
   22.8796  -21.3437  -12.0065 H   0  0  0  0  0  0  0  0  0  0  0  0
   19.1296  -20.4499  -11.9680 H   0  0  0  0  0  0  0  0  0  0  0  0
   18.5467  -23.1002  -10.0227 H   0  0  0  0  0  0  0  0  0  0  0  0
   17.1377  -22.2354  -10.3759 H   0  0  0  0  0  0  0  0  0  0  0  0
  1  2  2  3
  2  3  1  0
  3  4  1  0
  4  5  1  0
  3  6  1  0
  6  7  1  0
  7  8  1  0
  7  9  1  0
  9 10  1  0
 10 11  1  0
 11 12  1  0
 12 13  1  0
 13 14  1  0
 14 15  1  0
 15 16  1  0
 16 17  1  0
 17 18  1  0
 18 19  1  0
 19 20  1  0
 20 21  1  0
 21 22  1  0
 22 23  1  0
 23 15  1  0
 23 17  1  0
 21 19  1  0
  1 24  1  0
  1 25  1  0
  2 26  1  0
  3 27  1  0
  4 28  1  0
  4 29  1  0
  5 30  1  0
  6 31  1  0
  7 32  1  0
  8 33  1  0
  8 34  1  0
  8 35  1  0
  9 36  1  0
  9 37  1  0
 10 38  1  0
 11 39  1  0
 11 40  1  0
 12 41  1  0
 12 42  1  0
 13 43  1  0
 14 44  1  0
 15 45  1  0
 17 46  1  0
 18 47  1  0
 18 48  1  0
 19 49  1  0
 20 50  1  0
 21 51  1  0
 22 52  1  0
 23 53  1  0
M  END
