
     RDKit          2D

 56 56  0  0  0  0  0  0  0  0999 V2000
   17.9221  -19.5112  -12.5909 C   0  0  0  0  0  0  0  0  0  0  0  0
   16.7260  -20.2446  -13.1218 C   0  0  0  0  0  0  0  0  0  0  0  0
   16.8511  -21.6796  -13.5402 C   0  0  0  0  0  0  0  0  0  0  0  0
   16.9763  -23.1146  -13.9586 C   0  0  0  0  0  0  0  0  0  0  0  0
   17.1014  -24.5497  -14.3770 C   0  0  0  0  0  0  0  0  0  0  0  0
   17.2266  -25.9847  -14.7953 C   0  0  0  0  0  0  0  0  0  0  0  0
   17.3519  -27.4198  -15.2137 C   0  0  0  0  0  0  0  0  0  0  0  0
   17.4770  -28.8547  -15.6320 C   0  0  0  0  0  0  0  0  0  0  0  0
   17.6022  -30.2897  -16.0504 C   0  0  0  0  0  0  0  0  0  0  0  0
   18.1707  -23.2711  -13.0648 C   0  0  0  0  0  0  0  0  0  0  0  0
   19.3651  -23.4275  -12.1710 C   0  0  0  0  0  0  0  0  0  0  0  0
   17.6751  -22.1458  -12.2056 C   0  0  0  0  0  0  0  0  0  0  0  0
   17.1795  -21.0206  -11.3463 C   0  0  0  0  0  0  0  0  0  0  0  0
   16.6839  -19.8953  -10.4871 C   0  0  0  0  0  0  0  0  0  0  0  0
   16.1883  -18.7702   -9.6280 C   0  0  0  0  0  0  0  0  0  0  0  0
   14.9061  -18.0721   -9.9723 C   0  0  0  0  0  0  0  0  0  0  0  0
   16.9749  -18.3430   -8.4243 C   0  0  0  0  0  0  0  0  0  0  0  0
   17.7615  -17.9159   -7.2206 C   0  0  0  0  0  0  0  0  0  0  0  0
   18.7882  -18.9682   -7.5182 C   0  0  0  0  0  0  0  0  0  0  0  0
   18.0016  -19.3953   -8.7218 C   0  0  0  0  0  0  0  0  0  0  0  0
   17.9751  -18.0846  -12.1304 H   0  0  0  0  0  0  0  0  0  0  0  0
   19.2430  -20.2129  -12.4784 H   0  0  0  0  0  0  0  0  0  0  0  0
   15.9377  -19.1579  -12.9796 H   0  0  0  0  0  0  0  0  0  0  0  0
   17.5846  -21.4853  -13.2959 H   0  0  0  0  0  0  0  0  0  0  0  0
   15.3976  -21.6986  -13.9098 H   0  0  0  0  0  0  0  0  0  0  0  0
   15.7819  -22.9582  -14.8524 H   0  0  0  0  0  0  0  0  0  0  0  0
   18.5811  -24.4903  -14.1378 H   0  0  0  0  0  0  0  0  0  0  0  0
   15.6482  -24.7835  -14.6653 H   0  0  0  0  0  0  0  0  0  0  0  0
   18.6811  -25.9645  -14.4292 H   0  0  0  0  0  0  0  0  0  0  0  0
   15.7722  -26.0049  -15.1614 H   0  0  0  0  0  0  0  0  0  0  0  0
   15.8971  -27.4402  -15.5787 H   0  0  0  0  0  0  0  0  0  0  0  0
   18.8066  -27.3992  -14.8486 H   0  0  0  0  0  0  0  0  0  0  0  0
   16.0230  -28.8743  -16.0001 H   0  0  0  0  0  0  0  0  0  0  0  0
   18.9311  -28.8352  -15.2639 H   0  0  0  0  0  0  0  0  0  0  0  0
   17.7274  -31.7248  -16.4687 H   0  0  0  0  0  0  0  0  0  0  0  0
   19.0555  -30.2712  -15.6793 H   0  0  0  0  0  0  0  0  0  0  0  0
   16.1490  -30.3084  -16.4214 H   0  0  0  0  0  0  0  0  0  0  0  0
   18.8082  -24.4070  -13.8086 H   0  0  0  0  0  0  0  0  0  0  0  0
   20.5596  -23.5840  -11.2772 H   0  0  0  0  0  0  0  0  0  0  0  0
   19.7115  -24.7145  -12.8591 H   0  0  0  0  0  0  0  0  0  0  0  0
   19.1669  -22.1692  -11.3790 H   0  0  0  0  0  0  0  0  0  0  0  0
   16.3955  -21.7226  -12.8642 H   0  0  0  0  0  0  0  0  0  0  0  0
   18.8008  -22.1630  -11.2145 H   0  0  0  0  0  0  0  0  0  0  0  0
   18.3745  -21.1763  -10.4531 H   0  0  0  0  0  0  0  0  0  0  0  0
   15.9002  -20.5973  -12.0051 H   0  0  0  0  0  0  0  0  0  0  0  0
   15.4890  -19.7395  -11.3805 H   0  0  0  0  0  0  0  0  0  0  0  0
   17.9303  -20.1873   -9.7052 H   0  0  0  0  0  0  0  0  0  0  0  0
   14.0003  -18.3677  -11.1308 H   0  0  0  0  0  0  0  0  0  0  0  0
   14.4105  -16.9468   -9.1132 H   0  0  0  0  0  0  0  0  0  0  0  0
   15.9482  -17.2907   -8.1267 H   0  0  0  0  0  0  0  0  0  0  0  0
   16.7348  -16.8635   -6.9230 H   0  0  0  0  0  0  0  0  0  0  0  0
   18.5481  -17.4887   -6.0169 H   0  0  0  0  0  0  0  0  0  0  0  0
   19.5748  -18.5411   -6.3145 H   0  0  0  0  0  0  0  0  0  0  0  0
   19.8150  -20.0205   -7.8156 H   0  0  0  0  0  0  0  0  0  0  0  0
   19.0283  -20.4476   -9.0193 H   0  0  0  0  0  0  0  0  0  0  0  0
   17.6353  -20.1713   -9.9521 H   0  0  0  0  0  0  0  0  0  0  0  0
  1  2  2  3
  2  3  1  0
  3  4  1  0
  4  5  1  0
  5  6  1  0
  6  7  1  0
  7  8  1  0
  8  9  1  0
  4 10  1  0
 10 11  1  0
 10 12  1  0
 12 13  1  0
 13 14  1  0
 14 15  1  0
 15 16  2  3
 15 17  1  0
 17 18  1  0
 18 19  1  0
 19 20  1  0
 20 17  1  0
  1 21  1  0
  1 22  1  0
  2 23  1  0
  3 24  1  0
  3 25  1  0
  4 26  1  0
  5 27  1  0
  5 28  1  0
  6 29  1  0
  6 30  1  0
  7 31  1  0
  7 32  1  0
  8 33  1  0
  8 34  1  0
  9 35  1  0
  9 36  1  0
  9 37  1  0
 10 38  1  0
 11 39  1  0
 11 40  1  0
 11 41  1  0
 12 42  1  0
 12 43  1  0
 13 44  1  0
 13 45  1  0
 14 46  1  0
 14 47  1  0
 16 48  1  0
 16 49  1  0
 17 50  1  0
 18 51  1  0
 18 52  1  0
 19 53  1  0
 19 54  1  0
 20 55  1  0
 20 56  1  0
M  END
