
     RDKit          2D

 41 43  0  0  0  0  0  0  0  0999 V2000
   24.9363  -22.2396  -12.5732 C   0  0  0  0  0  0  0  0  0  0  0  0
   23.4545  -22.0315  -12.4699 C   0  0  0  0  0  0  0  0  0  0  0  0
   21.9725  -21.8234  -12.3666 C   0  0  0  0  0  0  0  0  0  0  0  0
   20.4906  -21.6153  -12.2634 C   0  0  0  0  0  0  0  0  0  0  0  0
   19.0088  -21.4072  -12.1601 N   0  0  0  0  0  0  0  0  0  0  0  0
   18.3795  -21.1449  -10.8240 C   0  0  0  0  0  0  0  0  0  0  0  0
   17.7503  -20.8825   -9.4879 C   0  0  0  0  0  0  0  0  0  0  0  0
   17.1209  -20.6202   -8.1518 C   0  0  0  0  0  0  0  0  0  0  0  0
   16.4918  -20.3578   -6.8156 As  0  0  0  0  0  3  0  0  0  0  0  0
   16.0435  -19.3937   -5.7577 C   0  0  0  0  0  0  0  0  0  0  0  0
   15.8503  -20.8679   -5.5593 C   0  0  0  0  0  0  0  0  0  0  0  0
   15.8840  -22.3429   -5.8299 C   0  0  0  0  0  0  0  0  0  0  0  0
   16.1939  -22.8456   -7.2087 N   0  0  0  0  0  0  0  0  0  0  0  0
   15.9176  -23.8179   -6.1004 C   0  0  0  0  0  0  0  0  0  0  0  0
   15.6077  -23.3152   -4.7215 C   0  0  0  0  0  0  0  0  0  0  0  0
   15.4160  -24.6194   -4.0059 S   0  0  0  0  0  0  0  0  0  0  0  0
   17.0321  -21.0520  -11.4768 S   0  0  0  0  0  0  0  0  0  0  0  0
   16.9034  -21.2335  -12.9602 Se  0  0  0  0  0  2  0  0  0  0  0  0
   26.4183  -22.4477  -12.6764 H   0  0  0  0  0  0  0  0  0  0  0  0
   24.8072  -22.4229  -14.0563 H   0  0  0  0  0  0  0  0  0  0  0  0
   25.0654  -22.0562  -11.0900 H   0  0  0  0  0  0  0  0  0  0  0  0
   23.3254  -22.2150  -13.9530 H   0  0  0  0  0  0  0  0  0  0  0  0
   23.5835  -21.8480  -10.9868 H   0  0  0  0  0  0  0  0  0  0  0  0
   21.8398  -22.0351  -13.8457 H   0  0  0  0  0  0  0  0  0  0  0  0
   22.1053  -21.6117  -10.8876 H   0  0  0  0  0  0  0  0  0  0  0  0
   20.6193  -21.4347  -10.7798 H   0  0  0  0  0  0  0  0  0  0  0  0
   20.3620  -21.7959  -13.7469 H   0  0  0  0  0  0  0  0  0  0  0  0
   18.1560  -21.4614  -13.3930 H   0  0  0  0  0  0  0  0  0  0  0  0
   19.7268  -21.2377  -10.1713 H   0  0  0  0  0  0  0  0  0  0  0  0
   16.4023  -20.7941  -10.1400 H   0  0  0  0  0  0  0  0  0  0  0  0
   19.0982  -20.9709   -8.8357 H   0  0  0  0  0  0  0  0  0  0  0  0
   16.0995  -20.5752   -8.8080 H   0  0  0  0  0  0  0  0  0  0  0  0
   18.4690  -20.7083   -7.4997 H   0  0  0  0  0  0  0  0  0  0  0  0
   15.4574  -18.8794   -4.4763 H   0  0  0  0  0  0  0  0  0  0  0  0
   16.4402  -18.0980   -6.4011 H   0  0  0  0  0  0  0  0  0  0  0  0
   15.1971  -20.8655   -4.2090 H   0  0  0  0  0  0  0  0  0  0  0  0
   16.4693  -22.7732   -8.3899 H   0  0  0  0  0  0  0  0  0  0  0  0
   15.9513  -25.2929   -6.3710 H   0  0  0  0  0  0  0  0  0  0  0  0
   15.3644  -22.3595   -3.5913 H   0  0  0  0  0  0  0  0  0  0  0  0
   15.0769  -24.6303   -2.5447 H   0  0  0  0  0  0  0  0  0  0  0  0
   15.5559  -21.1407  -13.6129 H   0  0  0  0  0  0  0  0  0  0  0  0
  1  2  1  0
  2  3  1  0
  3  4  1  0
  4  5  1  0
  5  6  1  0
  6  7  1  0
  7  8  1  0
  8  9  1  0
  9 10  1  0
 10 11  1  0
 11 12  1  0
 12 13  1  0
 13 14  1  0
 14 15  1  0
 15 16  1  0
  6 17  1  0
 17 18  1  0
 11  9  1  0
 14 12  1  0
 15 12  1  0
  1 19  1  0
  1 20  1  0
  1 21  1  0
  2 22  1  0
  2 23  1  0
  3 24  1  0
  3 25  1  0
  4 26  1  0
  4 27  1  0
  5 28  1  0
  6 29  1  0
  7 30  1  0
  7 31  1  0
  8 32  1  0
  8 33  1  0
 10 34  1  0
 10 35  1  0
 11 36  1  0
 13 37  1  0
 14 38  1  0
 15 39  1  0
 16 40  1  0
 18 41  1  0
M  END
