
     RDKit          2D

 50 55  0  0  0  0  0  0  0  0999 V2000
   12.3774  -18.1754  -10.4703 C   0  0  0  0  0  0  0  0  0  0  0  0
   13.8349  -18.4667  -10.6720 C   0  0  0  0  0  0  0  0  0  0  0  0
   14.9387  -18.4627   -9.6563 C   0  0  0  0  0  0  0  0  0  0  0  0
   16.3602  -18.6222   -9.2045 C   0  0  0  0  0  0  0  0  0  0  0  0
   17.7816  -18.7816   -8.7528 C   0  0  0  0  0  0  0  0  0  0  0  0
   18.1891  -19.1230  -10.1554 C   0  0  0  0  0  0  0  0  0  0  0  0
   19.6105  -19.2825   -9.7037 C   0  0  0  0  0  0  0  0  0  0  0  0
   19.2030  -18.9411   -8.3010 N   0  0  0  0  0  0  0  0  0  0  0  0
   14.8576  -18.1665   -8.1880 C   0  0  0  0  0  0  0  0  0  0  0  0
   14.9974  -17.9080   -6.7171 C   0  0  0  0  0  0  0  0  0  0  0  0
   13.6526  -17.8011   -7.3729 C   0  0  0  0  0  0  0  0  0  0  0  0
   12.2311  -17.6416   -7.8247 C   0  0  0  0  0  0  0  0  0  0  0  0
   11.6635  -17.8082   -9.2031 C   0  0  0  0  0  0  0  0  0  0  0  0
   12.5889  -17.4267   -6.3838 C   0  0  0  0  0  0  0  0  0  0  0  0
   13.4157  -17.3302   -5.1360 C   0  0  0  0  0  0  0  0  0  0  0  0
   14.2425  -17.2336   -3.8883 C   0  0  0  0  0  0  0  0  0  0  0  0
   13.0162  -16.8718   -3.1037 C   0  0  0  0  0  0  0  0  0  0  0  0
   13.8431  -16.7753   -1.8558 C   0  0  0  0  0  0  0  0  0  0  0  0
   14.6699  -16.6787   -0.6080 C   0  0  0  0  0  0  0  0  0  0  0  0
   15.8962  -17.0405   -1.3926 C   0  0  0  0  0  0  0  0  0  0  0  0
   15.0694  -17.1371   -2.6404 C   0  0  0  0  0  0  0  0  0  0  0  0
   11.5202  -18.2629  -11.6981 H   0  0  0  0  0  0  0  0  0  0  0  0
   14.2426  -18.8069  -12.0748 H   0  0  0  0  0  0  0  0  0  0  0  0
   15.6525  -18.8299  -10.9234 H   0  0  0  0  0  0  0  0  0  0  0  0
   16.4999  -18.7918  -10.0626 H   0  0  0  0  0  0  0  0  0  0  0  0
   16.2345  -18.4695   -8.4323 H   0  0  0  0  0  0  0  0  0  0  0  0
   17.3742  -18.4402   -7.3501 H   0  0  0  0  0  0  0  0  0  0  0  0
   18.5966  -19.4644  -11.5580 H   0  0  0  0  0  0  0  0  0  0  0  0
   17.3853  -19.0541  -10.5211 H   0  0  0  0  0  0  0  0  0  0  0  0
   21.0320  -19.4419   -9.2519 H   0  0  0  0  0  0  0  0  0  0  0  0
   20.0180  -19.6238  -11.1063 H   0  0  0  0  0  0  0  0  0  0  0  0
   19.9201  -18.8124   -6.9897 H   0  0  0  0  0  0  0  0  0  0  0  0
   15.6393  -18.2818   -8.0830 H   0  0  0  0  0  0  0  0  0  0  0  0
   16.4714  -18.1318   -6.5523 H   0  0  0  0  0  0  0  0  0  0  0  0
   14.8025  -17.5949   -5.2631 H   0  0  0  0  0  0  0  0  0  0  0  0
   10.8270  -17.3182   -7.4076 H   0  0  0  0  0  0  0  0  0  0  0  0
   10.5599  -17.8122  -10.2188 H   0  0  0  0  0  0  0  0  0  0  0  0
   10.4586  -17.4428   -8.3880 H   0  0  0  0  0  0  0  0  0  0  0  0
   11.2378  -17.0859   -5.8282 H   0  0  0  0  0  0  0  0  0  0  0  0
   12.3540  -16.3522   -4.7280 H   0  0  0  0  0  0  0  0  0  0  0  0
   14.4773  -18.3081   -5.5441 H   0  0  0  0  0  0  0  0  0  0  0  0
   15.4687  -17.5954   -4.6728 H   0  0  0  0  0  0  0  0  0  0  0  0
   11.7900  -16.5101   -2.3192 H   0  0  0  0  0  0  0  0  0  0  0  0
   12.0461  -16.9236   -4.2466 H   0  0  0  0  0  0  0  0  0  0  0  0
   12.6169  -16.4135   -1.0713 H   0  0  0  0  0  0  0  0  0  0  0  0
   15.4967  -16.5822    0.6397 H   0  0  0  0  0  0  0  0  0  0  0  0
   13.4437  -16.3170    0.1765 H   0  0  0  0  0  0  0  0  0  0  0  0
   17.1224  -17.4023   -2.1771 H   0  0  0  0  0  0  0  0  0  0  0  0
   16.7230  -16.9440   -0.1448 H   0  0  0  0  0  0  0  0  0  0  0  0
   16.2955  -17.4988   -3.4250 H   0  0  0  0  0  0  0  0  0  0  0  0
  1  2  2  0
  2  3  1  0
  3  4  1  0
  4  5  1  0
  5  6  1  0
  6  7  1  0
  7  8  1  0
  3  9  1  0
  9 10  1  0
 10 11  1  0
 11 12  1  0
 12 13  1  0
 12 14  1  0
 14 15  1  0
 15 16  1  0
 16 17  1  0
 17 18  1  0
 18 19  1  0
 19 20  1  0
 20 21  1  0
 13  1  1  0
 21 16  1  0
  8  5  1  0
 11  9  1  0
 21 18  1  0
 14 11  1  0
  1 22  1  0
  2 23  1  0
  3 24  1  0
  4 25  1  0
  4 26  1  0
  5 27  1  0
  6 28  1  0
  6 29  1  0
  7 30  1  0
  7 31  1  0
  8 32  1  0
  9 33  1  0
 10 34  1  0
 10 35  1  0
 12 36  1  0
 13 37  1  0
 13 38  1  0
 14 39  1  0
 15 40  1  0
 15 41  1  0
 16 42  1  0
 17 43  1  0
 17 44  1  0
 18 45  1  0
 19 46  1  0
 19 47  1  0
 20 48  1  0
 20 49  1  0
 21 50  1  0
M  END
