
     RDKit          2D

 28 28  0  0  0  0  0  0  0  0999 V2000
   17.2526  -12.6836  -13.5105 C   0  0  0  0  0  0  0  0  0  0  0  0
   17.0728  -14.1468  -13.2337 C   0  0  0  0  0  0  0  0  0  0  0  0
   16.8930  -15.6101  -12.9569 C   0  0  0  0  0  0  0  0  0  0  0  0
   16.7132  -17.0733  -12.6801 C   0  0  0  0  0  0  0  0  0  0  0  0
   15.4574  -16.7166  -13.4190 C   0  0  0  0  0  0  0  0  0  0  0  0
   14.3063  -17.6040  -13.7895 C   0  0  0  0  0  0  0  0  0  0  0  0
   14.1264  -19.0672  -13.5128 C   0  0  0  0  0  0  0  0  0  0  0  0
   15.0534  -20.0045  -12.7970 C   0  0  0  0  0  0  0  0  0  0  0  0
   16.3892  -19.7099  -12.1814 C   0  0  0  0  0  0  0  0  0  0  0  0
   17.1278  -18.4055  -12.1293 O   0  0  0  0  0  0  0  0  0  0  0  0
   17.4324  -11.2204  -13.7873 H   0  0  0  0  0  0  0  0  0  0  0  0
   15.9237  -12.6517  -14.2054 H   0  0  0  0  0  0  0  0  0  0  0  0
   18.5816  -12.7154  -12.8156 H   0  0  0  0  0  0  0  0  0  0  0  0
   15.7460  -14.1161  -13.9329 H   0  0  0  0  0  0  0  0  0  0  0  0
   18.3995  -14.1776  -12.5345 H   0  0  0  0  0  0  0  0  0  0  0  0
   15.5568  -15.5746  -13.6376 H   0  0  0  0  0  0  0  0  0  0  0  0
   17.6094  -15.5340  -12.6158 H   0  0  0  0  0  0  0  0  0  0  0  0
   18.0489  -16.7788  -12.0645 H   0  0  0  0  0  0  0  0  0  0  0  0
   14.6555  -15.6493  -14.1030 H   0  0  0  0  0  0  0  0  0  0  0  0
   15.7745  -15.9855  -13.4399 H   0  0  0  0  0  0  0  0  0  0  0  0
   12.9658  -17.7215  -14.4524 H   0  0  0  0  0  0  0  0  0  0  0  0
   13.7392  -16.3556  -14.3979 H   0  0  0  0  0  0  0  0  0  0  0  0
   13.2568  -20.2811  -13.6554 H   0  0  0  0  0  0  0  0  0  0  0  0
   12.8227  -18.8862  -14.2321 H   0  0  0  0  0  0  0  0  0  0  0  0
   15.3095  -21.4006  -12.3120 H   0  0  0  0  0  0  0  0  0  0  0  0
   13.9947  -21.0271  -13.0856 H   0  0  0  0  0  0  0  0  0  0  0  0
   17.6449  -20.0667  -11.4425 H   0  0  0  0  0  0  0  0  0  0  0  0
   16.3727  -21.1661  -11.8220 H   0  0  0  0  0  0  0  0  0  0  0  0
  1  2  1  0
  2  3  1  0
  3  4  1  0
  4  5  1  0
  5  6  1  0
  6  7  1  0
  7  8  1  0
  8  9  1  0
  9 10  1  0
 10  4  1  0
  1 11  1  0
  1 12  1  0
  1 13  1  0
  2 14  1  0
  2 15  1  0
  3 16  1  0
  3 17  1  0
  4 18  1  0
  5 19  1  0
  5 20  1  0
  6 21  1  0
  6 22  1  0
  7 23  1  0
  7 24  1  0
  8 25  1  0
  8 26  1  0
  9 27  1  0
  9 28  1  0
M  END
