
     RDKit          2D

 50 53  0  0  0  0  0  0  0  0999 V2000
   15.9536  -24.5423   -2.1588 C   0  0  0  0  0  0  0  0  0  0  0  0
   17.0904  -25.0049   -3.0212 C   0  0  0  0  0  0  0  0  0  0  0  0
   18.2271  -25.4673   -3.8836 C   0  0  0  0  0  0  0  0  0  0  0  0
   16.7742  -23.9274   -4.0157 C   0  0  0  0  0  0  0  0  0  0  0  0
   16.4581  -22.8498   -5.0103 C   0  0  0  0  0  0  0  0  0  0  0  0
   16.1419  -21.7724   -6.0048 C   0  0  0  0  0  0  0  0  0  0  0  0
   15.8258  -20.6949   -6.9993 C   0  0  0  0  0  0  0  0  0  0  0  0
   14.6538  -20.0500   -6.3209 C   0  0  0  0  0  0  0  0  0  0  0  0
   13.5132  -19.1086   -6.0697 O   0  0  0  0  0  0  0  0  0  0  0  0
   14.5628  -20.9034   -5.0908 O   0  0  0  0  0  0  0  0  0  0  0  0
   15.1408  -19.5234   -7.6383 C   0  0  0  0  0  0  0  0  0  0  0  0
   14.4557  -18.3518   -8.2773 C   0  0  0  0  0  0  0  0  0  0  0  0
   14.9427  -17.8253   -9.5947 C   0  0  0  0  0  0  0  0  0  0  0  0
   15.6278  -18.9968   -8.9557 C   0  0  0  0  0  0  0  0  0  0  0  0
   16.7999  -19.6417   -9.6341 C   0  0  0  0  0  0  0  0  0  0  0  0
   17.9720  -20.2867  -10.3125 C   0  0  0  0  0  0  0  0  0  0  0  0
   19.1441  -20.9316  -10.9910 C   0  0  0  0  0  0  0  0  0  0  0  0
   20.3162  -21.5765  -11.6694 C   0  0  0  0  0  0  0  0  0  0  0  0
   21.4567  -22.5179  -11.9206 C   0  0  0  0  0  0  0  0  0  0  0  0
   20.6323  -22.6540  -10.6749 C   0  0  0  0  0  0  0  0  0  0  0  0
   14.8168  -24.0798   -1.2964 H   0  0  0  0  0  0  0  0  0  0  0  0
   16.2700  -25.6195   -1.1640 H   0  0  0  0  0  0  0  0  0  0  0  0
   15.6863  -23.8777   -2.6797 H   0  0  0  0  0  0  0  0  0  0  0  0
   17.4064  -26.0823   -2.0267 H   0  0  0  0  0  0  0  0  0  0  0  0
   19.3639  -25.9299   -4.7461 H   0  0  0  0  0  0  0  0  0  0  0  0
   18.5453  -26.5427   -2.8874 H   0  0  0  0  0  0  0  0  0  0  0  0
   18.1224  -24.8704   -4.5296 H   0  0  0  0  0  0  0  0  0  0  0  0
   17.0591  -24.3578   -4.7355 H   0  0  0  0  0  0  0  0  0  0  0  0
   16.4438  -23.3417   -3.4391 H   0  0  0  0  0  0  0  0  0  0  0  0
   15.3299  -22.3787   -4.1413 H   0  0  0  0  0  0  0  0  0  0  0  0
   17.5863  -23.3210   -5.8792 H   0  0  0  0  0  0  0  0  0  0  0  0
   15.2183  -21.6030   -5.0349 H   0  0  0  0  0  0  0  0  0  0  0  0
   17.2786  -22.2351   -6.8674 H   0  0  0  0  0  0  0  0  0  0  0  0
   16.8306  -21.0620   -7.8230 H   0  0  0  0  0  0  0  0  0  0  0  0
   12.6888  -19.2447   -4.8240 H   0  0  0  0  0  0  0  0  0  0  0  0
   13.5005  -20.6327   -4.0669 H   0  0  0  0  0  0  0  0  0  0  0  0
   13.2836  -17.7069   -7.5988 H   0  0  0  0  0  0  0  0  0  0  0  0
   13.9714  -16.7010   -9.8010 H   0  0  0  0  0  0  0  0  0  0  0  0
   15.7672  -17.6892  -10.8404 H   0  0  0  0  0  0  0  0  0  0  0  0
   16.6874  -18.6595  -10.7622 H   0  0  0  0  0  0  0  0  0  0  0  0
   17.0290  -20.5899   -8.7009 H   0  0  0  0  0  0  0  0  0  0  0  0
   17.8561  -19.3079  -11.4432 H   0  0  0  0  0  0  0  0  0  0  0  0
   18.0879  -21.2655   -9.1819 H   0  0  0  0  0  0  0  0  0  0  0  0
   19.3602  -21.8030   -9.7893 H   0  0  0  0  0  0  0  0  0  0  0  0
   18.8225  -20.0825  -11.9900 H   0  0  0  0  0  0  0  0  0  0  0  0
   20.4071  -20.7230  -12.8996 H   0  0  0  0  0  0  0  0  0  0  0  0
   21.9437  -21.9913  -13.2381 H   0  0  0  0  0  0  0  0  0  0  0  0
   22.4281  -23.6420  -11.7144 H   0  0  0  0  0  0  0  0  0  0  0  0
   21.3174  -23.8254  -10.0360 H   0  0  0  0  0  0  0  0  0  0  0  0
   19.7392  -22.5374   -9.6694 H   0  0  0  0  0  0  0  0  0  0  0  0
  1  2  1  0
  2  3  1  0
  2  4  1  0
  4  5  1  0
  5  6  1  0
  6  7  1  0
  7  8  1  0
  8  9  1  0
  8 10  1  0
  8 11  1  0
 11 12  1  0
 12 13  1  0
 13 14  1  0
 14 15  1  0
 15 16  1  0
 16 17  1  0
 17 18  1  0
 18 19  1  0
 19 20  1  0
 11  7  1  0
 14 12  1  0
 20 18  1  0
 14 11  1  0
  1 21  1  0
  1 22  1  0
  1 23  1  0
  2 24  1  0
  3 25  1  0
  3 26  1  0
  3 27  1  0
  4 28  1  0
  4 29  1  0
  5 30  1  0
  5 31  1  0
  6 32  1  0
  6 33  1  0
  7 34  1  0
  9 35  1  0
 10 36  1  0
 12 37  1  0
 13 38  1  0
 13 39  1  0
 15 40  1  0
 15 41  1  0
 16 42  1  0
 16 43  1  0
 17 44  1  0
 17 45  1  0
 18 46  1  0
 19 47  1  0
 19 48  1  0
 20 49  1  0
 20 50  1  0
M  END
