
     RDKit          2D

 76 77  0  0  0  0  0  0  0  0999 V2000
   15.9745  -16.3965   -7.1092 C   0  0  0  0  0  0  0  0  0  0  0  0
   16.5284  -17.7778   -7.2958 C   0  0  0  0  0  0  0  0  0  0  0  0
   16.6321  -18.7090   -6.1244 C   0  0  0  0  0  0  0  0  0  0  0  0
   16.7357  -19.6400   -4.9529 C   0  0  0  0  0  0  0  0  0  0  0  0
   16.8393  -20.5710   -3.7814 C   0  0  0  0  0  0  0  0  0  0  0  0
   17.2142  -19.7656   -7.0157 C   0  0  0  0  0  0  0  0  0  0  0  0
   17.7964  -20.8224   -7.9070 C   0  0  0  0  0  0  0  0  0  0  0  0
   18.3785  -21.8790   -8.7984 C   0  0  0  0  0  0  0  0  0  0  0  0
   18.9607  -22.9358   -9.6897 C   0  0  0  0  0  0  0  0  0  0  0  0
   17.6817  -19.8954   -9.0808 C   0  0  0  0  0  0  0  0  0  0  0  0
   17.5670  -18.9685  -10.2545 C   0  0  0  0  0  0  0  0  0  0  0  0
   17.1597  -18.4168   -9.2515 F   0  0  0  0  0  0  0  0  0  0  0  0
   18.1542  -20.2073  -10.8636 C   0  0  0  0  0  0  0  0  0  0  0  0
   18.5331  -20.4572  -12.2932 C   0  0  0  0  0  0  0  0  0  0  0  0
   19.0692  -21.2835  -13.4246 C   0  0  0  0  0  0  0  0  0  0  0  0
   18.8863  -21.7519  -11.6229 C   0  0  0  0  0  0  0  0  0  0  0  0
   18.4184  -19.5303  -13.4670 C   0  0  0  0  0  0  0  0  0  0  0  0
   17.8965  -18.1245  -13.5009 C   0  0  0  0  0  0  0  0  0  0  0  0
   17.5433  -16.8298  -14.1712 C   0  0  0  0  0  0  0  0  0  0  0  0
   17.1900  -15.5353  -14.8414 C   0  0  0  0  0  0  0  0  0  0  0  0
   16.8368  -14.2406  -15.5117 C   0  0  0  0  0  0  0  0  0  0  0  0
   16.4835  -12.9461  -16.1819 C   0  0  0  0  0  0  0  0  0  0  0  0
   17.3604  -17.2983  -12.3695 N   0  0  0  0  0  0  0  0  0  0  0  0
   17.2138  -17.6739  -10.9248 C   0  0  0  0  0  0  0  0  0  0  0  0
   16.8349  -17.4239   -9.4952 C   0  0  0  0  0  0  0  0  0  0  0  0
   16.6919  -16.2680  -10.9588 C   0  0  0  0  0  0  0  0  0  0  0  0
   16.1093  -14.9690  -10.4865 C   0  0  0  0  0  0  0  0  0  0  0  0
   16.3359  -16.0874   -9.5128 C   0  0  0  0  0  0  0  0  0  0  0  0
   15.8010  -15.3434   -8.1632 H   0  0  0  0  0  0  0  0  0  0  0  0
   15.5242  -15.9461   -5.7511 H   0  0  0  0  0  0  0  0  0  0  0  0
   16.8931  -18.1426   -8.3959 H   0  0  0  0  0  0  0  0  0  0  0  0
   16.0499  -17.6522   -5.2330 H   0  0  0  0  0  0  0  0  0  0  0  0
   16.4199  -19.0231   -4.5590 H   0  0  0  0  0  0  0  0  0  0  0  0
   16.4333  -19.1437   -4.4072 H   0  0  0  0  0  0  0  0  0  0  0  0
   16.9430  -21.5022   -2.6099 H   0  0  0  0  0  0  0  0  0  0  0  0
   16.2404  -19.5208   -2.8936 H   0  0  0  0  0  0  0  0  0  0  0  0
   17.4382  -21.6214   -4.6692 H   0  0  0  0  0  0  0  0  0  0  0  0
   17.2562  -20.5571   -5.7422 H   0  0  0  0  0  0  0  0  0  0  0  0
   17.3981  -20.8147   -5.9595 H   0  0  0  0  0  0  0  0  0  0  0  0
   17.9110  -21.7492   -6.7333 H   0  0  0  0  0  0  0  0  0  0  0  0
   18.4915  -22.8066   -7.6250 H   0  0  0  0  0  0  0  0  0  0  0  0
   18.1955  -20.8296   -9.8544 H   0  0  0  0  0  0  0  0  0  0  0  0
   19.5428  -23.9924  -10.5810 H   0  0  0  0  0  0  0  0  0  0  0  0
   19.0760  -23.8624   -8.5159 H   0  0  0  0  0  0  0  0  0  0  0  0
   18.9172  -22.1448  -10.9635 H   0  0  0  0  0  0  0  0  0  0  0  0
   18.2692  -21.0588   -9.8233 H   0  0  0  0  0  0  0  0  0  0  0  0
   17.0942  -18.7320   -8.3383 H   0  0  0  0  0  0  0  0  0  0  0  0
   18.6761  -21.6131  -10.8296 H   0  0  0  0  0  0  0  0  0  0  0  0
   18.0075  -20.5828   -9.4188 H   0  0  0  0  0  0  0  0  0  0  0  0
   19.6053  -22.1096  -14.5559 H   0  0  0  0  0  0  0  0  0  0  0  0
   19.3466  -22.5246  -12.6292 H   0  0  0  0  0  0  0  0  0  0  0  0
   18.9225  -20.2437  -14.4958 H   0  0  0  0  0  0  0  0  0  0  0  0
   19.2396  -23.0464  -10.9527 H   0  0  0  0  0  0  0  0  0  0  0  0
   19.3954  -22.4574  -12.8449 H   0  0  0  0  0  0  0  0  0  0  0  0
   18.4634  -21.3620  -10.2376 H   0  0  0  0  0  0  0  0  0  0  0  0
   18.6333  -19.3229  -14.9369 H   0  0  0  0  0  0  0  0  0  0  0  0
   19.0031  -20.6783  -14.2351 H   0  0  0  0  0  0  0  0  0  0  0  0
   18.2179  -18.2038  -14.9640 H   0  0  0  0  0  0  0  0  0  0  0  0
   18.0146  -17.3811  -15.4842 H   0  0  0  0  0  0  0  0  0  0  0  0
   17.0004  -15.9818  -13.0593 H   0  0  0  0  0  0  0  0  0  0  0  0
   17.6575  -16.0879  -16.1552 H   0  0  0  0  0  0  0  0  0  0  0  0
   16.7226  -14.9827  -13.5276 H   0  0  0  0  0  0  0  0  0  0  0  0
   17.3178  -14.7882  -16.8227 H   0  0  0  0  0  0  0  0  0  0  0  0
   16.3557  -13.6931  -14.2006 H   0  0  0  0  0  0  0  0  0  0  0  0
   16.1302  -11.6514  -16.8521 H   0  0  0  0  0  0  0  0  0  0  0  0
   16.0359  -12.3861  -14.8643 H   0  0  0  0  0  0  0  0  0  0  0  0
   16.9311  -13.5061  -17.4994 H   0  0  0  0  0  0  0  0  0  0  0  0
   16.9116  -15.9133  -12.7307 H   0  0  0  0  0  0  0  0  0  0  0  0
   16.4560  -17.1739   -8.0655 H   0  0  0  0  0  0  0  0  0  0  0  0
   16.3086  -16.0193   -9.4995 H   0  0  0  0  0  0  0  0  0  0  0  0
   17.2829  -18.8092   -9.1341 H   0  0  0  0  0  0  0  0  0  0  0  0
   16.7258  -15.6373  -12.3192 H   0  0  0  0  0  0  0  0  0  0  0  0
   16.0818  -14.2102  -11.7802 H   0  0  0  0  0  0  0  0  0  0  0  0
   15.5363  -13.9334   -9.5649 H   0  0  0  0  0  0  0  0  0  0  0  0
   15.8065  -15.2927   -8.3560 H   0  0  0  0  0  0  0  0  0  0  0  0
   16.6178  -17.2889   -8.6603 H   0  0  0  0  0  0  0  0  0  0  0  0
  1  2  2  3
  2  3  1  0
  3  4  1  0
  4  5  1  0
  3  6  1  0
  6  7  1  0
  7  8  1  0
  8  9  1  0
  7 10  1  0
 10 11  1  0
 11 12  1  0
 11 13  1  0
 13 14  1  0
 14 15  1  0
 14 16  1  0
 14 17  1  0
 17 18  1  0
 18 19  1  0
 19 20  1  0
 20 21  1  0
 21 22  1  0
 18 23  1  0
 23 24  1  0
 24 25  1  0
 24 26  1  0
 26 27  1  0
 27 28  1  0
 24 11  1  0
 28 26  1  0
  1 29  1  0
  1 30  1  0
  2 31  1  0
  3 32  1  0
  4 33  1  0
  4 34  1  0
  5 35  1  0
  5 36  1  0
  5 37  1  0
  6 38  1  0
  6 39  1  0
  7 40  1  0
  8 41  1  0
  8 42  1  0
  9 43  1  0
  9 44  1  0
  9 45  1  0
 10 46  1  0
 10 47  1  0
 13 48  1  0
 13 49  1  0
 15 50  1  0
 15 51  1  0
 15 52  1  0
 16 53  1  0
 16 54  1  0
 16 55  1  0
 17 56  1  0
 17 57  1  0
 18 58  1  0
 19 59  1  0
 19 60  1  0
 20 61  1  0
 20 62  1  0
 21 63  1  0
 21 64  1  0
 22 65  1  0
 22 66  1  0
 22 67  1  0
 23 68  1  0
 25 69  1  0
 25 70  1  0
 25 71  1  0
 26 72  1  0
 27 73  1  0
 27 74  1  0
 28 75  1  0
 28 76  1  0
M  END
