
     RDKit          2D

 75 77  0  0  0  0  0  0  0  0999 V2000
   15.9557  -25.0374   -4.6630 C   0  0  0  0  0  0  0  0  0  0  0  0
   16.1219  -24.3586   -5.9902 C   0  0  0  0  0  0  0  0  0  0  0  0
   16.0115  -25.1529   -7.2579 C   0  0  0  0  0  0  0  0  0  0  0  0
   15.9010  -25.9472   -8.5255 C   0  0  0  0  0  0  0  0  0  0  0  0
   16.2580  -23.9089   -8.0589 C   0  0  0  0  0  0  0  0  0  0  0  0
   16.1117  -24.8269   -9.2361 O   0  0  0  0  0  0  0  0  0  0  0  0
   16.2877  -24.0127  -10.4835 C   0  0  0  0  0  0  0  0  0  0  0  0
   16.4159  -23.4719  -11.8767 O   0  0  0  0  0  0  0  0  0  0  0  0
   16.2697  -24.3900  -13.0540 C   0  0  0  0  0  0  0  0  0  0  0  0
   16.2118  -24.8577  -14.4780 C   0  0  0  0  0  0  0  0  0  0  0  0
   16.4733  -23.4125  -14.1734 C   0  0  0  0  0  0  0  0  0  0  0  0
   16.6015  -22.8717  -15.5667 C   0  0  0  0  0  0  0  0  0  0  0  0
   16.8760  -21.4130  -15.7827 C   0  0  0  0  0  0  0  0  0  0  0  0
   17.0042  -20.8722  -17.1759 C   0  0  0  0  0  0  0  0  0  0  0  0
   17.1325  -20.3315  -18.5692 C   0  0  0  0  0  0  0  0  0  0  0  0
   17.2607  -19.7907  -19.9624 C   0  0  0  0  0  0  0  0  0  0  0  0
   16.5427  -22.5914  -10.0772 C   0  0  0  0  0  0  0  0  0  0  0  0
   16.7708  -21.2833   -9.3797 C   0  0  0  0  0  0  0  0  0  0  0  0
   16.9611  -20.3852  -10.5660 C   0  0  0  0  0  0  0  0  0  0  0  0
   17.1513  -19.4871  -11.7523 C   0  0  0  0  0  0  0  0  0  0  0  0
   17.3415  -18.5891  -12.9386 C   0  0  0  0  0  0  0  0  0  0  0  0
   17.1592  -19.2152   -9.6485 C   0  0  0  0  0  0  0  0  0  0  0  0
   17.3574  -18.0452   -8.7310 C   0  0  0  0  0  0  0  0  0  0  0  0
   17.5555  -16.8751   -7.8135 C   0  0  0  0  0  0  0  0  0  0  0  0
   17.7537  -15.7051   -6.8960 C   0  0  0  0  0  0  0  0  0  0  0  0
   17.9518  -14.5351   -5.9786 C   0  0  0  0  0  0  0  0  0  0  0  0
   18.9432  -17.3532   -7.5036 C   0  0  0  0  0  0  0  0  0  0  0  0
   20.3308  -17.8312   -7.1936 C   0  0  0  0  0  0  0  0  0  0  0  0
   16.5243  -22.5273   -8.5787 C   0  0  0  0  0  0  0  0  0  0  0  0
   16.0662  -24.2432   -3.3954 H   0  0  0  0  0  0  0  0  0  0  0  0
   15.6790  -26.5105   -4.6034 H   0  0  0  0  0  0  0  0  0  0  0  0
   16.3926  -22.8885   -5.8668 H   0  0  0  0  0  0  0  0  0  0  0  0
   15.7649  -26.3970   -6.4570 H   0  0  0  0  0  0  0  0  0  0  0  0
   15.7905  -26.7415   -9.7932 H   0  0  0  0  0  0  0  0  0  0  0  0
   16.0191  -25.4088   -9.1014 H   0  0  0  0  0  0  0  0  0  0  0  0
   15.6445  -27.1895   -7.7248 H   0  0  0  0  0  0  0  0  0  0  0  0
   16.3834  -23.0950   -6.8051 H   0  0  0  0  0  0  0  0  0  0  0  0
   16.0595  -25.3208  -11.1810 H   0  0  0  0  0  0  0  0  0  0  0  0
   16.0153  -25.6863  -12.3434 H   0  0  0  0  0  0  0  0  0  0  0  0
   15.9373  -26.3165  -14.2620 H   0  0  0  0  0  0  0  0  0  0  0  0
   16.2492  -24.8190  -15.9770 H   0  0  0  0  0  0  0  0  0  0  0  0
   16.6902  -22.1550  -13.3850 H   0  0  0  0  0  0  0  0  0  0  0  0
   16.4553  -23.7898  -16.7439 H   0  0  0  0  0  0  0  0  0  0  0  0
   17.0222  -20.4949  -14.6055 H   0  0  0  0  0  0  0  0  0  0  0  0
   17.1756  -19.4884  -16.6231 H   0  0  0  0  0  0  0  0  0  0  0  0
   16.8328  -22.2560  -17.7288 H   0  0  0  0  0  0  0  0  0  0  0  0
   16.1921  -21.3891  -19.0662 H   0  0  0  0  0  0  0  0  0  0  0  0
   18.0729  -19.2738  -18.0721 H   0  0  0  0  0  0  0  0  0  0  0  0
   17.3889  -19.2499  -21.3557 H   0  0  0  0  0  0  0  0  0  0  0  0
   17.0212  -21.1636  -20.5173 H   0  0  0  0  0  0  0  0  0  0  0  0
   17.5002  -18.4179  -19.4075 H   0  0  0  0  0  0  0  0  0  0  0  0
   16.6403  -22.2220  -11.5278 H   0  0  0  0  0  0  0  0  0  0  0  0
   16.9047  -20.4269   -8.1555 H   0  0  0  0  0  0  0  0  0  0  0  0
   16.7876  -21.4371  -11.6212 H   0  0  0  0  0  0  0  0  0  0  0  0
   17.3709  -18.2164  -10.9863 H   0  0  0  0  0  0  0  0  0  0  0  0
   16.9534  -20.6573  -12.6698 H   0  0  0  0  0  0  0  0  0  0  0  0
   17.5317  -17.6910  -14.1250 H   0  0  0  0  0  0  0  0  0  0  0  0
   16.9831  -19.7222  -13.8539 H   0  0  0  0  0  0  0  0  0  0  0  0
   17.6999  -17.4561  -12.0234 H   0  0  0  0  0  0  0  0  0  0  0  0
   17.3729  -18.1814  -10.7142 H   0  0  0  0  0  0  0  0  0  0  0  0
   16.9938  -19.9638   -8.3593 H   0  0  0  0  0  0  0  0  0  0  0  0
   17.1662  -18.9430   -7.5447 H   0  0  0  0  0  0  0  0  0  0  0  0
   17.5230  -17.2966  -10.0203 H   0  0  0  0  0  0  0  0  0  0  0  0
   16.1680  -16.3972   -8.1235 H   0  0  0  0  0  0  0  0  0  0  0  0
   17.9486  -14.8080   -8.0822 H   0  0  0  0  0  0  0  0  0  0  0  0
   17.5844  -16.4530   -5.6069 H   0  0  0  0  0  0  0  0  0  0  0  0
   18.1500  -13.3651   -5.0611 H   0  0  0  0  0  0  0  0  0  0  0  0
   17.7266  -15.4264   -4.7933 H   0  0  0  0  0  0  0  0  0  0  0  0
   18.1771  -13.6438   -7.1638 H   0  0  0  0  0  0  0  0  0  0  0  0
   19.0862  -16.6557   -6.1834 H   0  0  0  0  0  0  0  0  0  0  0  0
   19.1383  -18.1673   -8.7482 H   0  0  0  0  0  0  0  0  0  0  0  0
   21.7183  -18.3092   -6.8837 H   0  0  0  0  0  0  0  0  0  0  0  0
   20.5299  -16.6597   -6.2784 H   0  0  0  0  0  0  0  0  0  0  0  0
   20.1315  -19.0028   -8.1089 H   0  0  0  0  0  0  0  0  0  0  0  0
   16.6190  -21.8694   -7.2341 H   0  0  0  0  0  0  0  0  0  0  0  0
  1  2  2  3
  2  3  1  0
  3  4  1  0
  3  5  1  0
  5  6  1  0
  6  7  1  0
  7  8  1  0
  8  9  1  0
  9 10  1  0
 10 11  1  0
 11 12  1  0
 12 13  2  3
 13 14  1  0
 14 15  1  0
 15 16  1  0
  7 17  1  0
 17 18  1  0
 18 19  1  0
 19 20  1  0
 20 21  1  0
 19 22  1  0
 22 23  1  0
 23 24  1  0
 24 25  1  0
 25 26  1  0
 24 27  1  0
 27 28  1  0
 18 29  1  0
 29  5  1  0
 11  9  1  0
 29 17  1  0
  1 30  1  0
  1 31  1  0
  2 32  1  0
  3 33  1  1
  4 34  1  0
  4 35  1  0
  4 36  1  0
  5 37  1  1
  7 38  1  6
  9 39  1  6
 10 40  1  0
 10 41  1  0
 11 42  1  1
 12 43  1  0
 13 44  1  0
 14 45  1  0
 14 46  1  0
 15 47  1  0
 15 48  1  0
 16 49  1  0
 16 50  1  0
 16 51  1  0
 17 52  1  1
 18 53  1  6
 19 54  1  6
 20 55  1  0
 20 56  1  0
 21 57  1  0
 21 58  1  0
 21 59  1  0
 22 60  1  0
 22 61  1  0
 23 62  1  0
 23 63  1  0
 24 64  1  0
 25 65  1  0
 25 66  1  0
 26 67  1  0
 26 68  1  0
 26 69  1  0
 27 70  1  0
 27 71  1  0
 28 72  1  0
 28 73  1  0
 28 74  1  0
 29 75  1  1
M  END
