
     RDKit          2D

 63 67  0  0  0  0  0  0  0  0999 V2000
   15.3168  -18.5736   -6.6545 C   0  0  0  0  0  0  0  0  0  0  0  0
   15.9298  -19.9424   -6.6346 C   0  0  0  0  0  0  0  0  0  0  0  0
   16.5428  -21.3113   -6.6148 C   0  0  0  0  0  0  0  0  0  0  0  0
   17.1557  -22.6802   -6.5948 C   0  0  0  0  0  0  0  0  0  0  0  0
   16.9548  -23.5748   -5.4076 C   0  0  0  0  0  0  0  0  0  0  0  0
   17.7687  -24.0491   -6.5750 C   0  0  0  0  0  0  0  0  0  0  0  0
   17.9696  -23.1545   -7.7622 C   0  0  0  0  0  0  0  0  0  0  0  0
   17.8766  -21.9499   -8.6512 C   0  0  0  0  0  0  0  0  0  0  0  0
   17.7836  -20.7454   -9.5402 C   0  0  0  0  0  0  0  0  0  0  0  0
   17.6906  -19.5408  -10.4292 C   0  0  0  0  0  0  0  0  0  0  0  0
   18.6264  -21.4394  -10.5688 C   0  0  0  0  0  0  0  0  0  0  0  0
   19.4693  -22.1335  -11.5973 C   0  0  0  0  0  0  0  0  0  0  0  0
   20.3121  -22.8275  -12.6259 C   0  0  0  0  0  0  0  0  0  0  0  0
   21.1559  -23.7568  -13.4471 C   0  0  0  0  0  0  0  0  0  0  0  0
   21.4967  -23.0607  -14.7313 C   0  0  0  0  0  0  0  0  0  0  0  0
   22.2333  -24.3302  -15.0409 C   0  0  0  0  0  0  0  0  0  0  0  0
   22.9698  -25.5997  -15.3505 C   0  0  0  0  0  0  0  0  0  0  0  0
   23.7064  -26.8692  -15.6601 O   0  0  0  0  0  0  0  0  0  0  0  0
   20.8636  -21.7011  -14.7038 C   0  0  0  0  0  0  0  0  0  0  0  0
   20.4359  -20.3184  -15.0976 O   0  0  0  0  0  0  0  0  0  0  0  0
   19.7037  -20.1743  -13.7963 C   0  0  0  0  0  0  0  0  0  0  0  0
   18.9716  -20.0302  -12.4952 C   0  0  0  0  0  0  0  0  0  0  0  0
   18.5291  -18.6543  -12.8965 O   0  0  0  0  0  0  0  0  0  0  0  0
   17.7969  -18.5102  -11.5952 C   0  0  0  0  0  0  0  0  0  0  0  0
   17.0648  -18.3661  -10.2940 O   0  0  0  0  0  0  0  0  0  0  0  0
   18.2394  -19.8861  -11.1939 O   0  0  0  0  0  0  0  0  0  0  0  0
   20.1315  -21.5570  -13.4025 C   0  0  0  0  0  0  0  0  0  0  0  0
   14.7038  -17.2046   -6.6743 H   0  0  0  0  0  0  0  0  0  0  0  0
   15.8957  -18.3341   -8.0174 H   0  0  0  0  0  0  0  0  0  0  0  0
   14.7379  -18.8129   -5.2915 H   0  0  0  0  0  0  0  0  0  0  0  0
   15.3444  -20.1848   -5.2749 H   0  0  0  0  0  0  0  0  0  0  0  0
   16.3854  -19.5757   -7.8514 H   0  0  0  0  0  0  0  0  0  0  0  0
   15.9576  -21.5536   -5.2550 H   0  0  0  0  0  0  0  0  0  0  0  0
   16.8416  -21.0708   -7.4131 H   0  0  0  0  0  0  0  0  0  0  0  0
   16.1087  -22.6821   -4.5491 H   0  0  0  0  0  0  0  0  0  0  0  0
   17.0478  -24.7793   -4.5187 H   0  0  0  0  0  0  0  0  0  0  0  0
   18.3817  -25.4180   -6.5551 H   0  0  0  0  0  0  0  0  0  0  0  0
   18.8157  -24.0473   -8.6207 H   0  0  0  0  0  0  0  0  0  0  0  0
   18.7244  -22.7857   -9.5637 H   0  0  0  0  0  0  0  0  0  0  0  0
   17.3759  -21.4565   -8.1124 H   0  0  0  0  0  0  0  0  0  0  0  0
   17.0205  -19.9933   -8.7189 H   0  0  0  0  0  0  0  0  0  0  0  0
   17.5343  -18.8304  -10.7554 H   0  0  0  0  0  0  0  0  0  0  0  0
   16.8478  -18.8468   -9.4007 H   0  0  0  0  0  0  0  0  0  0  0  0
   18.5384  -20.3765  -11.3418 H   0  0  0  0  0  0  0  0  0  0  0  0
   18.8210  -22.7199   -9.8120 H   0  0  0  0  0  0  0  0  0  0  0  0
   18.4319  -20.1591  -11.3256 H   0  0  0  0  0  0  0  0  0  0  0  0
   19.5633  -23.3375  -10.7078 H   0  0  0  0  0  0  0  0  0  0  0  0
   19.3752  -20.9294  -12.4869 H   0  0  0  0  0  0  0  0  0  0  0  0
   20.3165  -23.9529  -11.6342 H   0  0  0  0  0  0  0  0  0  0  0  0
   20.9839  -24.6880  -12.2838 H   0  0  0  0  0  0  0  0  0  0  0  0
   21.9262  -24.9721  -13.8709 H   0  0  0  0  0  0  0  0  0  0  0  0
   21.9915  -22.6299  -16.0802 H   0  0  0  0  0  0  0  0  0  0  0  0
   22.6609  -23.7603  -16.3609 H   0  0  0  0  0  0  0  0  0  0  0  0
   21.8986  -25.0506  -13.7685 H   0  0  0  0  0  0  0  0  0  0  0  0
   22.5534  -26.1646  -14.0247 H   0  0  0  0  0  0  0  0  0  0  0  0
   23.3862  -25.0349  -16.6762 H   0  0  0  0  0  0  0  0  0  0  0  0
   23.7044  -27.9976  -14.6718 H   0  0  0  0  0  0  0  0  0  0  0  0
   21.5198  -21.6271  -16.0506 H   0  0  0  0  0  0  0  0  0  0  0  0
   19.2759  -18.7916  -14.1902 H   0  0  0  0  0  0  0  0  0  0  0  0
   19.4141  -21.4060  -12.0938 H   0  0  0  0  0  0  0  0  0  0  0  0
   17.3543  -17.1343  -11.9966 H   0  0  0  0  0  0  0  0  0  0  0  0
   16.4338  -17.0550   -9.9296 H   0  0  0  0  0  0  0  0  0  0  0  0
   19.3414  -21.1983  -12.1789 H   0  0  0  0  0  0  0  0  0  0  0  0
  1  2  1  0
  2  3  1  0
  3  4  1  0
  4  5  1  0
  5  6  1  0
  6  7  1  0
  7  8  1  0
  8  9  1  0
  9 10  1  0
  9 11  1  0
 11 12  1  0
 12 13  1  0
 13 14  1  0
 14 15  1  0
 15 16  1  0
 16 17  1  0
 17 18  1  0
 15 19  1  0
 19 20  1  0
 20 21  1  0
 21 22  1  0
 22 23  1  0
 23 24  1  0
 24 25  1  0
 24 26  1  0
 21 27  1  0
  6  4  1  0
 27 13  1  0
  7  4  1  0
 27 19  1  0
 26 22  1  0
  1 28  1  0
  1 29  1  0
  1 30  1  0
  2 31  1  0
  2 32  1  0
  3 33  1  0
  3 34  1  0
  5 35  1  0
  5 36  1  0
  6 37  1  0
  7 38  1  0
  8 39  1  0
  8 40  1  0
  9 41  1  0
 10 42  1  0
 10 43  1  0
 10 44  1  0
 11 45  1  0
 11 46  1  0
 12 47  1  0
 12 48  1  0
 13 49  1  0
 14 50  1  0
 14 51  1  0
 15 52  1  0
 16 53  1  0
 16 54  1  0
 17 55  1  0
 17 56  1  0
 18 57  1  0
 19 58  1  0
 21 59  1  0
 22 60  1  0
 24 61  1  0
 25 62  1  0
 27 63  1  0
M  END
