
     RDKit          2D

 22 26  0  0  0  0  0  0  0  0999 V2000
   -0.6566   28.1993    4.6804 C   0  0  0  0  0  0  0  0  0  0  0  0
   -1.0294   27.0280    3.8207 N   0  0  0  0  0  0  0  0  0  0  0  0
   -2.2648   26.8165    4.6448 O   0  0  0  0  0  0  0  0  0  0  0  0
   -1.8919   27.9877    5.5046 C   0  0  0  0  0  0  0  0  0  0  0  0
   -3.1273   27.7761    6.3286 C   0  0  0  0  0  0  0  0  0  0  0  0
   -4.3627   27.5644    7.1527 O   0  0  0  0  0  0  0  0  0  0  0  0
   -4.6570   28.4725    8.3097 C   0  0  0  0  0  0  0  0  0  0  0  0
   -3.5196   29.4499    8.3353 N   0  0  0  0  0  0  0  0  0  0  0  0
   -4.6162   29.5485    9.3540 C   0  0  0  0  0  0  0  0  0  0  0  0
   -7.1960   28.5337   10.5006 C   0  0  0  0  0  0  0  0  0  0  0  0
   -7.2368   27.4577    9.4564 N   0  0  0  0  0  0  0  0  0  0  0  0
   -5.9469   27.9651    8.8830 B   0  0  0  0  0  0  0  0  0  0  0  0
   -5.9061   29.0411    9.9273 N   0  0  0  0  0  0  0  0  0  0  0  0
   -0.2837   29.3705    5.5402 H   0  0  0  0  0  0  0  0  0  0  0  0
    0.5788   28.4109    3.8564 H   0  0  0  0  0  0  0  0  0  0  0  0
   -0.4195   26.3495    2.6301 H   0  0  0  0  0  0  0  0  0  0  0  0
   -1.5191   29.1589    6.3642 H   0  0  0  0  0  0  0  0  0  0  0  0
   -3.1815   29.2455    6.6248 H   0  0  0  0  0  0  0  0  0  0  0  0
   -3.0732   26.3066    6.0324 H   0  0  0  0  0  0  0  0  0  0  0  0
   -2.2297   29.9573    7.7620 H   0  0  0  0  0  0  0  0  0  0  0  0
   -8.0792   28.9358   11.6445 H   0  0  0  0  0  0  0  0  0  0  0  0
   -8.1779   26.3380    9.1234 H   0  0  0  0  0  0  0  0  0  0  0  0
  1  2  1  0
  2  3  1  0
  3  4  1  0
  4  5  1  0
  5  6  1  0
  6  7  1  0
  7  8  1  0
  8  9  1  0
  9 10  1  0
 10 11  1  0
 11 12  1  0
 12 13  1  0
  4  1  1  0
  9  7  1  0
 13 10  1  0
 12  7  1  0
 13  9  1  0
  1 14  1  0
  1 15  1  0
  2 16  1  0
  4 17  1  0
  5 18  1  0
  5 19  1  0
  8 20  1  0
 10 21  1  0
 11 22  1  0
M  END
