
     RDKit          2D

106115  0  0  0  0  0  0  0  0999 V2000
   17.6751  -17.1066   -5.7486 C   0  0  0  0  0  0  0  0  0  0  0  0
   18.2898  -18.4129   -5.3416 C   0  0  0  0  0  0  0  0  0  0  0  0
   18.9045  -19.7192   -4.9347 C   0  0  0  0  0  0  0  0  0  0  0  0
   19.5192  -21.0255   -4.5277 C   0  0  0  0  0  0  0  0  0  0  0  0
   20.1339  -22.3318   -4.1207 C   0  0  0  0  0  0  0  0  0  0  0  0
   20.7486  -23.6381   -3.7137 O   0  0  0  0  0  0  0  0  0  0  0  0
   19.6117  -22.1434   -2.7272 Cl  0  0  0  0  0  0  0  0  0  0  0  0
   18.1808  -19.6510   -3.6225 C   0  0  0  0  0  0  0  0  0  0  0  0
   17.4571  -19.5827   -2.3104 C   0  0  0  0  0  0  0  0  0  0  0  0
   17.9379  -20.8566   -1.6811 C   0  0  0  0  0  0  0  0  0  0  0  0
   16.9876  -19.9651   -0.9381 C   0  0  0  0  0  0  0  0  0  0  0  0
   16.0924  -18.8003   -0.6350 C   0  0  0  0  0  0  0  0  0  0  0  0
   15.6230  -19.1828    0.7373 C   0  0  0  0  0  0  0  0  0  0  0  0
   15.1536  -19.5652    2.1097 C   0  0  0  0  0  0  0  0  0  0  0  0
   15.3601  -17.5028   -0.8085 N   0  0  0  0  0  0  0  0  0  0  0  0
   16.2509  -18.0134   -1.9021 C   0  0  0  0  0  0  0  0  0  0  0  0
   16.0793  -16.9169   -2.9112 C   0  0  0  0  0  0  0  0  0  0  0  0
   16.2378  -16.1299   -4.1783 C   0  0  0  0  0  0  0  0  0  0  0  0
   16.9701  -17.4275   -4.0048 C   0  0  0  0  0  0  0  0  0  0  0  0
   17.6937  -17.4956   -5.3168 C   0  0  0  0  0  0  0  0  0  0  0  0
   18.4175  -17.5638   -6.6289 C   0  0  0  0  0  0  0  0  0  0  0  0
   19.1412  -17.6321   -7.9411 C   0  0  0  0  0  0  0  0  0  0  0  0
   19.8649  -17.7003   -9.2531 C   0  0  0  0  0  0  0  0  0  0  0  0
   20.7009  -18.0384  -10.4518 C   0  0  0  0  0  0  0  0  0  0  0  0
   20.5293  -16.9418  -11.4608 C   0  0  0  0  0  0  0  0  0  0  0  0
   20.6550  -16.1189  -12.7086 C   0  0  0  0  0  0  0  0  0  0  0  0
   20.7807  -15.2960  -13.9565 C   0  0  0  0  0  0  0  0  0  0  0  0
   19.7130  -15.1031  -12.1335 C   0  0  0  0  0  0  0  0  0  0  0  0
   18.8344  -14.6348  -11.0116 C   0  0  0  0  0  0  0  0  0  0  0  0
   17.8924  -13.6189  -10.4366 C   0  0  0  0  0  0  0  0  0  0  0  0
   19.1767  -16.3947   -9.5213 C   0  0  0  0  0  0  0  0  0  0  0  0
   19.5873  -15.9260  -10.8858 C   0  0  0  0  0  0  0  0  0  0  0  0
   19.0299  -18.8716   -6.2232 C   0  0  0  0  0  0  0  0  0  0  0  0
   19.8487  -19.1660   -7.4449 C   0  0  0  0  0  0  0  0  0  0  0  0
   20.6717  -20.4183   -7.5125 C   0  0  0  0  0  0  0  0  0  0  0  0
   21.2778  -20.2585   -8.8752 C   0  0  0  0  0  0  0  0  0  0  0  0
   21.8839  -20.0987  -10.2380 C   0  0  0  0  0  0  0  0  0  0  0  0
   22.4901  -19.9390  -11.6008 C   0  0  0  0  0  0  0  0  0  0  0  0
   23.2193  -21.2384  -11.4287 C   0  0  0  0  0  0  0  0  0  0  0  0
   23.9486  -22.5379  -11.2567 C   0  0  0  0  0  0  0  0  0  0  0  0
   24.6779  -23.8374  -11.0847 C   0  0  0  0  0  0  0  0  0  0  0  0
   21.7608  -18.6395  -11.7727 C   0  0  0  0  0  0  0  0  0  0  0  0
   22.3669  -18.4798  -13.1355 C   0  0  0  0  0  0  0  0  0  0  0  0
   23.0961  -19.7792  -12.9634 N   0  0  0  0  0  0  0  0  0  0  0  0
   19.8528  -20.1239   -6.2906 C   0  0  0  0  0  0  0  0  0  0  0  0
   17.0603  -15.8002   -6.1556 H   0  0  0  0  0  0  0  0  0  0  0  0
   19.6282  -19.7874   -6.2468 H   0  0  0  0  0  0  0  0  0  0  0  0
   19.0317  -21.1757   -3.9152 H   0  0  0  0  0  0  0  0  0  0  0  0
   18.9520  -21.0064   -3.9679 H   0  0  0  0  0  0  0  0  0  0  0  0
   20.7272  -22.6781   -5.4542 H   0  0  0  0  0  0  0  0  0  0  0  0
   21.0832  -23.8933   -2.2739 H   0  0  0  0  0  0  0  0  0  0  0  0
   17.6535  -18.3661   -4.1892 H   0  0  0  0  0  0  0  0  0  0  0  0
   18.8845  -20.9524   -3.3757 H   0  0  0  0  0  0  0  0  0  0  0  0
   16.8042  -18.2754   -2.6489 H   0  0  0  0  0  0  0  0  0  0  0  0
   18.1095  -21.9532   -0.6721 H   0  0  0  0  0  0  0  0  0  0  0  0
   18.8624  -21.5102   -2.6651 H   0  0  0  0  0  0  0  0  0  0  0  0
   16.9446  -20.8735    0.2549 H   0  0  0  0  0  0  0  0  0  0  0  0
   14.7957  -17.9333    0.8026 H   0  0  0  0  0  0  0  0  0  0  0  0
   16.2270  -20.4864    1.1683 H   0  0  0  0  0  0  0  0  0  0  0  0
   14.5870  -19.7925    3.4799 H   0  0  0  0  0  0  0  0  0  0  0  0
   14.3272  -18.3151    2.1754 H   0  0  0  0  0  0  0  0  0  0  0  0
   15.9166  -20.8526    2.2118 H   0  0  0  0  0  0  0  0  0  0  0  0
   14.4231  -16.4588   -0.2774 H   0  0  0  0  0  0  0  0  0  0  0  0
   17.2011  -18.9048   -2.6453 H   0  0  0  0  0  0  0  0  0  0  0  0
   15.1290  -16.0254   -2.1680 H   0  0  0  0  0  0  0  0  0  0  0  0
   15.3425  -14.9651   -3.8752 H   0  0  0  0  0  0  0  0  0  0  0  0
   16.6030  -15.5979   -5.5324 H   0  0  0  0  0  0  0  0  0  0  0  0
   17.5473  -18.7277   -3.5291 H   0  0  0  0  0  0  0  0  0  0  0  0
   17.1713  -16.2078   -5.8810 H   0  0  0  0  0  0  0  0  0  0  0  0
   18.2163  -18.7835   -4.7526 H   0  0  0  0  0  0  0  0  0  0  0  0
   17.8050  -16.2561   -7.0347 H   0  0  0  0  0  0  0  0  0  0  0  0
   18.4441  -16.3264   -8.1843 H   0  0  0  0  0  0  0  0  0  0  0  0
   19.9116  -18.9169   -7.8643 H   0  0  0  0  0  0  0  0  0  0  0  0
   20.3022  -18.9570   -8.5608 H   0  0  0  0  0  0  0  0  0  0  0  0
   20.9532  -19.1928   -9.5278 H   0  0  0  0  0  0  0  0  0  0  0  0
   21.5205  -18.3322  -11.6732 H   0  0  0  0  0  0  0  0  0  0  0  0
   21.4694  -17.6915  -12.3575 H   0  0  0  0  0  0  0  0  0  0  0  0
   21.6053  -17.0269  -13.4315 H   0  0  0  0  0  0  0  0  0  0  0  0
   20.9064  -14.4731  -15.2042 H   0  0  0  0  0  0  0  0  0  0  0  0
   21.7168  -16.3156  -14.5346 H   0  0  0  0  0  0  0  0  0  0  0  0
   19.8669  -14.1837  -13.5347 H   0  0  0  0  0  0  0  0  0  0  0  0
   19.4767  -13.9595  -13.0751 H   0  0  0  0  0  0  0  0  0  0  0  0
   16.9504  -12.6030   -9.8615 H   0  0  0  0  0  0  0  0  0  0  0  0
   18.0246  -12.7919  -11.6809 H   0  0  0  0  0  0  0  0  0  0  0  0
   17.7602  -14.4460   -9.1921 H   0  0  0  0  0  0  0  0  0  0  0  0
   18.2280  -15.5545   -8.7187 H   0  0  0  0  0  0  0  0  0  0  0  0
   18.5172  -19.1886   -4.8496 H   0  0  0  0  0  0  0  0  0  0  0  0
   19.8447  -18.2082   -8.5993 H   0  0  0  0  0  0  0  0  0  0  0  0
   21.2841  -21.7261   -7.1067 H   0  0  0  0  0  0  0  0  0  0  0  0
   22.0025  -21.5608   -8.7055 H   0  0  0  0  0  0  0  0  0  0  0  0
   20.4279  -19.0336   -8.7101 H   0  0  0  0  0  0  0  0  0  0  0  0
   21.1539  -18.7998  -10.4104 H   0  0  0  0  0  0  0  0  0  0  0  0
   22.6139  -21.3977  -10.0656 H   0  0  0  0  0  0  0  0  0  0  0  0
   23.9094  -21.2385  -12.7605 H   0  0  0  0  0  0  0  0  0  0  0  0
   23.7316  -20.9217  -12.8025 H   0  0  0  0  0  0  0  0  0  0  0  0
   23.3372  -22.7010   -9.8967 H   0  0  0  0  0  0  0  0  0  0  0  0
   24.5600  -22.3748  -12.6167 H   0  0  0  0  0  0  0  0  0  0  0  0
   25.4072  -25.1367  -10.9127 H   0  0  0  0  0  0  0  0  0  0  0  0
   24.0806  -23.9916   -9.7174 H   0  0  0  0  0  0  0  0  0  0  0  0
   25.2752  -23.6831  -12.4520 H   0  0  0  0  0  0  0  0  0  0  0  0
   21.1108  -17.3303  -12.1096 H   0  0  0  0  0  0  0  0  0  0  0  0
   21.1547  -18.7994  -10.4100 H   0  0  0  0  0  0  0  0  0  0  0  0
   22.9730  -18.3200  -14.4983 H   0  0  0  0  0  0  0  0  0  0  0  0
   21.7169  -17.1705  -13.4724 H   0  0  0  0  0  0  0  0  0  0  0  0
   24.0404  -20.5851  -13.8054 H   0  0  0  0  0  0  0  0  0  0  0  0
   19.8570  -21.0818   -5.1363 H   0  0  0  0  0  0  0  0  0  0  0  0
  1  2  3  0
  2  3  1  0
  3  4  1  0
  4  5  1  0
  5  6  1  0
  5  7  1  0
  3  8  1  0
  8  9  1  0
  9 10  1  0
 10 11  1  0
 11 12  1  0
 12 13  1  0
 13 14  1  0
 12 15  1  0
 15 16  1  0
 16 17  1  0
 17 18  1  0
 18 19  1  0
 19 20  1  0
 20 21  1  0
 21 22  1  0
 22 23  1  0
 23 24  1  0
 24 25  1  0
 25 26  1  0
 26 27  1  0
 26 28  1  0
 28 29  1  0
 29 30  1  0
 29 31  1  0
 31 32  1  0
 21 33  1  0
 33 34  1  0
 34 35  1  0
 35 36  1  0
 36 37  1  0
 37 38  1  0
 38 39  1  0
 39 40  1  0
 40 41  1  0
 38 42  1  0
 42 43  1  0
 43 44  1  0
 35 45  1  0
 11  9  1  0
 16 12  1  0
 19 17  1  0
 31 23  1  0
 45 33  1  0
 32 25  1  0
 45 34  1  0
 32 28  1  0
 44 38  1  0
 32 29  1  0
  1 46  1  0
  3 47  1  0
  4 48  1  0
  4 49  1  0
  5 50  1  0
  6 51  1  0
  8 52  1  0
  8 53  1  0
  9 54  1  0
 10 55  1  0
 10 56  1  0
 11 57  1  0
 13 58  1  0
 13 59  1  0
 14 60  1  0
 14 61  1  0
 14 62  1  0
 15 63  1  0
 16 64  1  0
 17 65  1  0
 18 66  1  0
 18 67  1  0
 19 68  1  0
 20 69  1  0
 20 70  1  0
 21 71  1  0
 22 72  1  0
 22 73  1  0
 23 74  1  0
 24 75  1  0
 24 76  1  0
 25 77  1  0
 26 78  1  0
 27 79  1  0
 27 80  1  0
 27 81  1  0
 28 82  1  0
 30 83  1  0
 30 84  1  0
 30 85  1  0
 31 86  1  0
 33 87  1  0
 34 88  1  0
 35 89  1  0
 36 90  1  0
 36 91  1  0
 37 92  1  0
 37 93  1  0
 39 94  1  0
 39 95  1  0
 40 96  1  0
 40 97  1  0
 41 98  1  0
 41 99  1  0
 41100  1  0
 42101  1  0
 42102  1  0
 43103  1  0
 43104  1  0
 44105  1  0
 45106  1  0
M  END
