
     RDKit          2D

 66 74  0  0  0  0  0  0  0  0999 V2000
   21.1666  -23.7218  -15.5740 C   0  0  0  0  0  0  0  0  0  0  0  0
   21.9898  -22.4681  -15.6032 C   0  0  0  0  0  0  0  0  0  0  0  0
   21.4924  -21.2613  -16.3421 C   0  0  0  0  0  0  0  0  0  0  0  0
   20.9950  -20.0543  -17.0810 C   0  0  0  0  0  0  0  0  0  0  0  0
   20.3052  -19.5773  -15.8375 C   0  0  0  0  0  0  0  0  0  0  0  0
   20.8026  -20.7842  -15.0985 C   0  0  0  0  0  0  0  0  0  0  0  0
   19.6462  -18.2881  -16.2294 C   0  0  0  0  0  0  0  0  0  0  0  0
   19.5100  -18.8040  -14.8276 C   0  0  0  0  0  0  0  0  0  0  0  0
   19.6693  -19.6963  -13.6323 C   0  0  0  0  0  0  0  0  0  0  0  0
   19.8285  -20.5884  -12.4370 Br  0  0  0  0  0  0  0  0  0  0  0  0
   18.6596  -17.7210  -14.2327 C   0  0  0  0  0  0  0  0  0  0  0  0
   17.8254  -16.5129  -13.9251 C   0  0  0  0  0  0  0  0  0  0  0  0
   17.4103  -16.5906  -12.4857 C   0  0  0  0  0  0  0  0  0  0  0  0
   17.9881  -17.8467  -11.9038 C   0  0  0  0  0  0  0  0  0  0  0  0
   17.3070  -17.3907  -10.6476 S   0  0  0  0  0  0  0  0  0  0  0  0
   17.4075  -18.2149   -9.3983 C   0  0  0  0  0  0  0  0  0  0  0  0
   17.5081  -19.0392   -8.1491 C   0  0  0  0  0  0  0  0  0  0  0  0
   17.6087  -19.8635   -6.9000 N   0  0  0  0  0  0  0  0  0  0  0  0
   16.5889  -20.9271   -6.6191 C   0  0  0  0  0  0  0  0  0  0  0  0
   15.6441  -20.8761   -7.7830 C   0  0  0  0  0  0  0  0  0  0  0  0
   15.4214  -21.8670   -6.6792 C   0  0  0  0  0  0  0  0  0  0  0  0
   15.8384  -22.4685   -5.3698 C   0  0  0  0  0  0  0  0  0  0  0  0
   17.0058  -21.5286   -5.3098 C   0  0  0  0  0  0  0  0  0  0  0  0
   16.4751  -22.6186   -4.4264 C   0  0  0  0  0  0  0  0  0  0  0  0
   17.4863  -22.5722   -3.3194 C   0  0  0  0  0  0  0  0  0  0  0  0
   16.5805  -23.4005   -2.4573 C   0  0  0  0  0  0  0  0  0  0  0  0
   17.5916  -23.3542   -1.3503 C   0  0  0  0  0  0  0  0  0  0  0  0
   18.4975  -22.5258   -2.2125 C   0  0  0  0  0  0  0  0  0  0  0  0
   14.6189  -22.9817   -6.0765 C   0  0  0  0  0  0  0  0  0  0  0  0
   18.7602  -18.5453  -12.9835 C   0  0  0  0  0  0  0  0  0  0  0  0
   21.6640  -24.9286  -14.8351 H   0  0  0  0  0  0  0  0  0  0  0  0
   19.8460  -23.7685  -16.2838 H   0  0  0  0  0  0  0  0  0  0  0  0
   23.2777  -22.5949  -14.8446 H   0  0  0  0  0  0  0  0  0  0  0  0
   22.1823  -21.7383  -17.5856 H   0  0  0  0  0  0  0  0  0  0  0  0
   21.6850  -20.5315  -18.3246 H   0  0  0  0  0  0  0  0  0  0  0  0
   20.5855  -18.9147  -17.9661 H   0  0  0  0  0  0  0  0  0  0  0  0
   20.5550  -20.7774  -14.3408 H   0  0  0  0  0  0  0  0  0  0  0  0
   21.2121  -21.9239  -14.2135 H   0  0  0  0  0  0  0  0  0  0  0  0
   19.9676  -18.0531  -17.6755 H   0  0  0  0  0  0  0  0  0  0  0  0
   18.8832  -16.9985  -16.2980 H   0  0  0  0  0  0  0  0  0  0  0  0
   20.1103  -20.3361  -13.8100 H   0  0  0  0  0  0  0  0  0  0  0  0
   18.9045  -18.9933  -12.5502 H   0  0  0  0  0  0  0  0  0  0  0  0
   18.6330  -16.9872  -15.5407 H   0  0  0  0  0  0  0  0  0  0  0  0
   18.0770  -16.1677  -15.3629 H   0  0  0  0  0  0  0  0  0  0  0  0
   17.0438  -15.2328  -13.9180 H   0  0  0  0  0  0  0  0  0  0  0  0
   16.7155  -15.2942  -12.7796 H   0  0  0  0  0  0  0  0  0  0  0  0
   16.8500  -16.3973  -11.1078 H   0  0  0  0  0  0  0  0  0  0  0  0
   18.4234  -19.0074  -11.0593 H   0  0  0  0  0  0  0  0  0  0  0  0
   16.5623  -17.2131   -8.6692 H   0  0  0  0  0  0  0  0  0  0  0  0
   18.2528  -19.2169  -10.1275 H   0  0  0  0  0  0  0  0  0  0  0  0
   16.1690  -18.4292   -7.8585 H   0  0  0  0  0  0  0  0  0  0  0  0
   18.8450  -19.5526   -8.5955 H   0  0  0  0  0  0  0  0  0  0  0  0
   18.7290  -19.6242   -5.9317 H   0  0  0  0  0  0  0  0  0  0  0  0
   16.1354  -19.7951   -8.6997 H   0  0  0  0  0  0  0  0  0  0  0  0
   14.4818  -21.2095   -8.6706 H   0  0  0  0  0  0  0  0  0  0  0  0
   15.6369  -23.4503   -4.2538 H   0  0  0  0  0  0  0  0  0  0  0  0
   15.5933  -23.7246   -3.9275 H   0  0  0  0  0  0  0  0  0  0  0  0
   18.3921  -21.7438   -4.1816 H   0  0  0  0  0  0  0  0  0  0  0  0
   15.6745  -24.2289   -1.5952 H   0  0  0  0  0  0  0  0  0  0  0  0
   15.3802  -23.6459   -3.3228 H   0  0  0  0  0  0  0  0  0  0  0  0
   18.6027  -23.3078   -0.2433 H   0  0  0  0  0  0  0  0  0  0  0  0
   16.6857  -24.1826   -0.4881 H   0  0  0  0  0  0  0  0  0  0  0  0
   19.4033  -21.6974   -3.0745 H   0  0  0  0  0  0  0  0  0  0  0  0
   19.5086  -22.4794   -1.1054 H   0  0  0  0  0  0  0  0  0  0  0  0
   19.0341  -19.5599  -11.9133 H   0  0  0  0  0  0  0  0  0  0  0  0
   19.6105  -19.6527  -13.5318 H   0  0  0  0  0  0  0  0  0  0  0  0
  1  2  2  3
  2  3  1  0
  3  4  1  0
  4  5  1  0
  5  6  1  0
  5  7  1  0
  7  8  1  0
  8  9  1  0
  9 10  1  0
  8 11  1  0
 11 12  1  0
 12 13  1  0
 13 14  1  0
 14 15  1  0
 15 16  1  0
 16 17  1  0
 17 18  1  0
 18 19  1  0
 19 20  1  0
 20 21  1  0
 21 22  1  0
 22 23  1  0
 23 24  1  0
 24 25  1  0
 25 26  1  0
 26 27  1  0
 27 28  1  0
 24 29  1  0
 14 30  1  0
  6  3  1  0
 30 11  1  0
  8  5  1  0
 21 19  1  0
 29 22  1  0
 23 19  1  0
 28 25  1  0
 29 21  1  0
 29 23  1  0
  1 31  1  0
  1 32  1  0
  2 33  1  0
  3 34  1  0
  4 35  1  0
  4 36  1  0
  6 37  1  0
  6 38  1  0
  7 39  1  0
  7 40  1  0
  9 41  1  0
  9 42  1  0
 11 43  1  0
 12 44  1  0
 12 45  1  0
 13 46  1  0
 13 47  1  0
 14 48  1  0
 16 49  1  0
 16 50  1  0
 17 51  1  0
 17 52  1  0
 18 53  1  0
 20 54  1  0
 20 55  1  0
 22 56  1  0
 24 57  1  0
 25 58  1  0
 26 59  1  0
 26 60  1  0
 27 61  1  0
 27 62  1  0
 28 63  1  0
 28 64  1  0
 30 65  1  0
 30 66  1  0
M  END
