
     RDKit          2D

 31 33  0  0  0  0  0  0  0  0999 V2000
    1.1895   28.8538    7.4522 N   0  0  0  0  0  0  0  0  0  0  0  0
    2.1921   28.8186    8.5673 C   0  0  0  0  0  0  0  0  0  0  0  0
    3.3708   29.7094    8.3080 C   0  0  0  0  0  0  0  0  0  0  0  0
    4.6698   29.7405    9.6236 C   0  0  0  0  0  0  0  0  0  0  0  0
    3.8093   28.7617   10.3663 C   0  0  0  0  0  0  0  0  0  0  0  0
    4.8119   28.7264   11.4815 C   0  0  0  0  0  0  0  0  0  0  0  0
    3.6333   27.8356   11.7408 C   0  0  0  0  0  0  0  0  0  0  0  0
    2.3777   27.4936   10.9947 C   0  0  0  0  0  0  0  0  0  0  0  0
    1.7807   27.9008    9.6801 C   0  0  0  0  0  0  0  0  0  0  0  0
    0.7968   26.9349   10.2709 C   0  0  0  0  0  0  0  0  0  0  0  0
   -0.4294   26.0830   10.4146 C   0  0  0  0  0  0  0  0  0  0  0  0
   -0.2423   26.9275    9.1892 N   0  0  0  0  0  0  0  0  0  0  0  0
   -0.7343   27.4107    7.8570 Br  0  0  0  0  0  0  0  0  0  0  0  0
    5.6724   29.7052   10.7388 C   0  0  0  0  0  0  0  0  0  0  0  0
    1.4334   29.7191    6.2514 H   0  0  0  0  0  0  0  0  0  0  0  0
    2.4891   29.8720    7.1054 H   0  0  0  0  0  0  0  0  0  0  0  0
    4.0930   30.6844    7.4262 H   0  0  0  0  0  0  0  0  0  0  0  0
    4.5694   30.4576    8.3099 H   0  0  0  0  0  0  0  0  0  0  0  0
    2.9365   27.9993   10.7313 H   0  0  0  0  0  0  0  0  0  0  0  0
    2.8068   28.7970    9.2510 H   0  0  0  0  0  0  0  0  0  0  0  0
    5.0462   28.1591   12.6839 H   0  0  0  0  0  0  0  0  0  0  0  0
    4.3128   27.5843   12.8798 H   0  0  0  0  0  0  0  0  0  0  0  0
    3.0512   26.8792   12.7390 H   0  0  0  0  0  0  0  0  0  0  0  0
    2.1451   26.6323   12.2006 H   0  0  0  0  0  0  0  0  0  0  0  0
    1.7879   27.0001   11.2048 H   0  0  0  0  0  0  0  0  0  0  0  0
    0.6745   27.8079    8.6715 H   0  0  0  0  0  0  0  0  0  0  0  0
    1.0920   26.7021   10.9739 H   0  0  0  0  0  0  0  0  0  0  0  0
   -0.1579   25.4591   11.7515 H   0  0  0  0  0  0  0  0  0  0  0  0
   -1.7499   25.4477   10.0942 H   0  0  0  0  0  0  0  0  0  0  0  0
    6.5328   30.6840    9.9962 H   0  0  0  0  0  0  0  0  0  0  0  0
    6.6749   29.6699   11.8540 H   0  0  0  0  0  0  0  0  0  0  0  0
  1  2  2  3
  2  3  1  0
  3  4  1  0
  4  5  1  0
  5  6  1  0
  6  7  1  0
  7  8  1  0
  8  9  1  0
  9 10  1  0
 10 11  1  0
 11 12  1  0
 12 13  1  0
  6 14  1  0
  9  2  1  0
 12 10  1  0
 14  4  1  0
  1 15  1  0
  3 16  1  0
  3 17  1  0
  4 18  1  0
  5 19  1  0
  5 20  1  0
  6 21  1  0
  7 22  1  0
  7 23  1  0
  8 24  1  0
  8 25  1  0
  9 26  1  0
 10 27  1  0
 11 28  1  0
 11 29  1  0
 14 30  1  0
 14 31  1  0
M  END
