
     RDKit          2D

 28 28  0  0  0  0  0  0  0  0999 V2000
   -1.1100   23.4947    6.9078 C   0  0  0  0  0  0  0  0  0  0  0  0
    0.1861   24.2488    6.9431 C   0  0  0  0  0  0  0  0  0  0  0  0
   -0.5613   25.5212    7.2120 S   0  0  0  0  0  0  0  0  0  0  0  0
   -2.0577   25.5043    7.3161 C   0  0  0  0  0  0  0  0  0  0  0  0
   -3.5540   25.4873    7.4202 N   0  0  0  0  0  0  0  0  0  0  0  0
   -4.3015   26.7597    7.6891 C   0  0  0  0  0  0  0  0  0  0  0  0
   -5.0489   28.0320    7.9580 C   0  0  0  0  0  0  0  0  0  0  0  0
   -5.7965   29.3044    8.2269 O   0  0  0  0  0  0  0  0  0  0  0  0
    1.4824   25.0029    6.9785 C   0  0  0  0  0  0  0  0  0  0  0  0
    0.9713   26.3867    7.2499 C   0  0  0  0  0  0  0  0  0  0  0  0
    2.4448   26.1466    7.1038 C   0  0  0  0  0  0  0  0  0  0  0  0
   -2.4062   22.7406    6.8724 H   0  0  0  0  0  0  0  0  0  0  0  0
   -0.3626   22.2225    6.6380 H   0  0  0  0  0  0  0  0  0  0  0  0
   -1.7278   23.9822    7.0349 H   0  0  0  0  0  0  0  0  0  0  0  0
    0.9337   22.9764    6.6742 H   0  0  0  0  0  0  0  0  0  0  0  0
   -2.1550   24.7231    7.1904 H   0  0  0  0  0  0  0  0  0  0  0  0
   -2.0568   26.9831    7.5673 H   0  0  0  0  0  0  0  0  0  0  0  0
   -4.3027   24.1981    7.2554 H   0  0  0  0  0  0  0  0  0  0  0  0
   -3.0053   27.5139    7.7240 H   0  0  0  0  0  0  0  0  0  0  0  0
   -5.5976   26.0055    7.6543 H   0  0  0  0  0  0  0  0  0  0  0  0
   -6.3452   27.2780    7.9228 H   0  0  0  0  0  0  0  0  0  0  0  0
   -3.7528   28.7861    7.9933 H   0  0  0  0  0  0  0  0  0  0  0  0
   -7.2927   29.2875    8.3310 H   0  0  0  0  0  0  0  0  0  0  0  0
    2.4436   23.8808    6.7193 H   0  0  0  0  0  0  0  0  0  0  0  0
    0.9721   27.8656    7.5008 H   0  0  0  0  0  0  0  0  0  0  0  0
   -0.5213   26.4731    7.3712 H   0  0  0  0  0  0  0  0  0  0  0  0
    3.7402   25.4218    6.8882 H   0  0  0  0  0  0  0  0  0  0  0  0
    2.9572   27.5420    7.3040 H   0  0  0  0  0  0  0  0  0  0  0  0
  1  2  1  0
  2  3  1  0
  3  4  1  0
  4  5  1  0
  5  6  1  0
  6  7  1  0
  7  8  1  0
  2  9  1  0
  9 10  1  0
 10 11  1  0
 11  9  1  0
  1 12  1  0
  1 13  1  0
  1 14  1  0
  2 15  1  0
  4 16  1  0
  4 17  1  0
  5 18  1  0
  6 19  1  0
  6 20  1  0
  7 21  1  0
  7 22  1  0
  8 23  1  0
  9 24  1  0
 10 25  1  0
 10 26  1  0
 11 27  1  0
 11 28  1  0
M  END
