
     RDKit          2D

103109  0  0  0  0  0  0  0  0999 V2000
   17.6525  -24.2439   -3.3728 C   0  0  0  0  0  0  0  0  0  0  0  0
   17.2597  -23.5238   -2.1170 C   0  0  0  0  0  0  0  0  0  0  0  0
   15.8100  -23.3023   -1.8017 C   0  0  0  0  0  0  0  0  0  0  0  0
   16.1710  -22.0783   -2.5901 C   0  0  0  0  0  0  0  0  0  0  0  0
   17.5421  -21.8267   -3.1440 C   0  0  0  0  0  0  0  0  0  0  0  0
   17.8687  -23.1465   -2.5103 C   0  0  0  0  0  0  0  0  0  0  0  0
   17.5165  -20.5120   -3.8657 C   0  0  0  0  0  0  0  0  0  0  0  0
   16.1295  -19.9510   -3.7579 C   0  0  0  0  0  0  0  0  0  0  0  0
   17.1598  -19.1601   -4.5081 C   0  0  0  0  0  0  0  0  0  0  0  0
   17.0043  -17.8361   -5.1958 C   0  0  0  0  0  0  0  0  0  0  0  0
   15.7800  -16.9761   -5.3030 C   0  0  0  0  0  0  0  0  0  0  0  0
   16.8104  -16.1851   -6.0533 C   0  0  0  0  0  0  0  0  0  0  0  0
   17.8407  -15.3942   -6.8036 C   0  0  0  0  0  0  0  0  0  0  0  0
   18.8710  -14.6033   -7.5538 C   0  0  0  0  0  0  0  0  0  0  0  0
   19.9013  -13.8124   -8.3040 C   0  0  0  0  0  0  0  0  0  0  0  0
   19.8907  -15.6677   -7.2757 C   0  0  0  0  0  0  0  0  0  0  0  0
   21.1096  -15.0206   -7.8635 C   0  0  0  0  0  0  0  0  0  0  0  0
   21.0086  -13.6623   -8.4918 C   0  0  0  0  0  0  0  0  0  0  0  0
   20.9076  -12.3040   -9.1201 C   0  0  0  0  0  0  0  0  0  0  0  0
   20.8065  -10.9457   -9.7483 C   0  0  0  0  0  0  0  0  0  0  0  0
   22.4296  -15.7320   -7.8230 C   0  0  0  0  0  0  0  0  0  0  0  0
   23.2944  -14.7154   -8.5075 C   0  0  0  0  0  0  0  0  0  0  0  0
   24.1593  -13.6987   -9.1919 C   0  0  0  0  0  0  0  0  0  0  0  0
   25.0242  -12.6820   -9.8763 C   0  0  0  0  0  0  0  0  0  0  0  0
   21.2107  -16.3790   -7.2352 C   0  0  0  0  0  0  0  0  0  0  0  0
   21.3117  -17.7374   -6.6069 C   0  0  0  0  0  0  0  0  0  0  0  0
   21.4127  -19.0957   -5.9786 O   0  0  0  0  0  0  0  0  0  0  0  0
   22.7326  -19.8074   -5.9389 N   0  0  0  0  0  0  0  0  0  0  0  0
   14.4090  -17.2276   -4.7491 C   0  0  0  0  0  0  0  0  0  0  0  0
   13.9235  -18.4012   -3.9512 C   0  0  0  0  0  0  0  0  0  0  0  0
   14.6892  -19.6133   -3.5100 C   0  0  0  0  0  0  0  0  0  0  0  0
   13.3181  -19.8649   -2.9561 C   0  0  0  0  0  0  0  0  0  0  0  0
   15.2980  -20.9190   -2.9695 C   0  0  0  0  0  0  0  0  0  0  0  0
   13.8483  -20.6975   -2.6543 C   0  0  0  0  0  0  0  0  0  0  0  0
   12.9136  -21.5804   -1.8819 C   0  0  0  0  0  0  0  0  0  0  0  0
   13.1977  -22.9030   -1.2339 C   0  0  0  0  0  0  0  0  0  0  0  0
   11.7583  -22.8787   -0.8124 C   0  0  0  0  0  0  0  0  0  0  0  0
   13.2668  -24.2221   -0.5228 C   0  0  0  0  0  0  0  0  0  0  0  0
   14.5558  -24.9883   -0.4872 C   0  0  0  0  0  0  0  0  0  0  0  0
   14.4868  -23.6694   -1.1982 C   0  0  0  0  0  0  0  0  0  0  0  0
   19.1022  -24.4654   -3.6880 H   0  0  0  0  0  0  0  0  0  0  0  0
   16.5958  -24.7426   -4.3133 H   0  0  0  0  0  0  0  0  0  0  0  0
   17.9414  -23.3366   -1.7486 H   0  0  0  0  0  0  0  0  0  0  0  0
   16.2653  -24.6059   -1.2160 H   0  0  0  0  0  0  0  0  0  0  0  0
   16.4047  -20.8138   -3.3623 H   0  0  0  0  0  0  0  0  0  0  0  0
   18.9815  -21.8511   -3.5654 H   0  0  0  0  0  0  0  0  0  0  0  0
   18.5274  -24.3994   -2.0142 H   0  0  0  0  0  0  0  0  0  0  0  0
   19.2816  -23.0324   -3.0007 H   0  0  0  0  0  0  0  0  0  0  0  0
   16.5767  -23.5766   -1.8812 H   0  0  0  0  0  0  0  0  0  0  0  0
   18.9612  -20.8113   -4.1363 H   0  0  0  0  0  0  0  0  0  0  0  0
   18.1291  -19.4017   -4.6670 H   0  0  0  0  0  0  0  0  0  0  0  0
   18.2009  -20.2068   -4.2420 H   0  0  0  0  0  0  0  0  0  0  0  0
   18.5783  -19.0690   -4.9873 H   0  0  0  0  0  0  0  0  0  0  0  0
   18.4546  -18.0152   -5.5347 H   0  0  0  0  0  0  0  0  0  0  0  0
   17.6528  -16.7460   -5.9966 H   0  0  0  0  0  0  0  0  0  0  0  0
   15.1702  -15.7079   -5.8224 H   0  0  0  0  0  0  0  0  0  0  0  0
   15.7896  -15.1229   -6.3353 H   0  0  0  0  0  0  0  0  0  0  0  0
   17.9492  -17.1431   -5.8649 H   0  0  0  0  0  0  0  0  0  0  0  0
   16.8200  -14.3317   -7.0852 H   0  0  0  0  0  0  0  0  0  0  0  0
   18.7282  -16.5451   -6.4326 H   0  0  0  0  0  0  0  0  0  0  0  0
   17.8514  -13.5389   -7.8319 H   0  0  0  0  0  0  0  0  0  0  0  0
   20.6541  -12.7878   -9.1001 H   0  0  0  0  0  0  0  0  0  0  0  0
   18.7628  -12.8540   -8.4918 H   0  0  0  0  0  0  0  0  0  0  0  0
   21.1410  -14.6521   -8.2127 H   0  0  0  0  0  0  0  0  0  0  0  0
   19.1771  -16.7866   -6.5766 H   0  0  0  0  0  0  0  0  0  0  0  0
   22.1694  -13.8083   -9.4305 H   0  0  0  0  0  0  0  0  0  0  0  0
   19.8373  -13.0292   -7.8010 H   0  0  0  0  0  0  0  0  0  0  0  0
   22.0065  -12.4851  -10.1248 H   0  0  0  0  0  0  0  0  0  0  0  0
   19.7840  -11.7918   -8.2685 H   0  0  0  0  0  0  0  0  0  0  0  0
   20.7055   -9.5874  -10.3766 H   0  0  0  0  0  0  0  0  0  0  0  0
   19.6386  -10.6236   -8.8641 H   0  0  0  0  0  0  0  0  0  0  0  0
   21.9745  -11.2679  -10.6326 H   0  0  0  0  0  0  0  0  0  0  0  0
   23.4492  -16.7964   -7.5449 H   0  0  0  0  0  0  0  0  0  0  0  0
   24.5195  -15.4078   -7.9880 H   0  0  0  0  0  0  0  0  0  0  0  0
   22.1839  -13.9042   -9.1064 H   0  0  0  0  0  0  0  0  0  0  0  0
   25.3516  -14.2028   -8.4340 H   0  0  0  0  0  0  0  0  0  0  0  0
   23.0813  -13.0745  -10.0275 H   0  0  0  0  0  0  0  0  0  0  0  0
   25.8889  -11.6654  -10.5607 H   0  0  0  0  0  0  0  0  0  0  0  0
   23.8401  -11.7727  -10.0218 H   0  0  0  0  0  0  0  0  0  0  0  0
   26.2082  -13.5914   -9.7309 H   0  0  0  0  0  0  0  0  0  0  0  0
   22.7774  -17.7749   -6.9238 H   0  0  0  0  0  0  0  0  0  0  0  0
   19.8460  -17.6998   -6.2900 H   0  0  0  0  0  0  0  0  0  0  0  0
   22.8336  -21.1656   -5.3105 H   0  0  0  0  0  0  0  0  0  0  0  0
   23.9513  -19.1608   -6.5277 H   0  0  0  0  0  0  0  0  0  0  0  0
   14.0788  -15.9081   -5.3816 H   0  0  0  0  0  0  0  0  0  0  0  0
   13.0000  -16.7363   -4.5960 H   0  0  0  0  0  0  0  0  0  0  0  0
   12.6136  -17.6704   -3.9609 H   0  0  0  0  0  0  0  0  0  0  0  0
   12.7764  -19.0567   -3.2408 H   0  0  0  0  0  0  0  0  0  0  0  0
   14.4912  -20.8872   -2.7433 H   0  0  0  0  0  0  0  0  0  0  0  0
   11.8734  -19.7942   -2.5587 H   0  0  0  0  0  0  0  0  0  0  0  0
   13.4448  -21.1876   -2.2604 H   0  0  0  0  0  0  0  0  0  0  0  0
   12.6820  -18.6045   -3.4632 H   0  0  0  0  0  0  0  0  0  0  0  0
   14.5763  -21.9641   -2.1715 H   0  0  0  0  0  0  0  0  0  0  0  0
   12.5593  -19.9312   -2.6900 H   0  0  0  0  0  0  0  0  0  0  0  0
   13.8587  -19.3872   -3.3845 H   0  0  0  0  0  0  0  0  0  0  0  0
   11.5279  -21.7896   -1.3471 H   0  0  0  0  0  0  0  0  0  0  0  0
   11.7863  -20.6108   -2.0793 H   0  0  0  0  0  0  0  0  0  0  0  0
   10.3190  -22.8543   -0.3910 H   0  0  0  0  0  0  0  0  0  0  0  0
   11.7565  -24.1943   -0.0918 H   0  0  0  0  0  0  0  0  0  0  0  0
   11.4093  -21.5571   -1.4302 H   0  0  0  0  0  0  0  0  0  0  0  0
   12.1514  -24.9174    0.2000 H   0  0  0  0  0  0  0  0  0  0  0  0
   14.1252  -26.1856    0.3073 H   0  0  0  0  0  0  0  0  0  0  0  0
   15.9613  -25.4919   -0.6325 H   0  0  0  0  0  0  0  0  0  0  0  0
  1  2  2  3
  2  3  1  0
  3  4  1  0
  4  5  1  0
  5  6  1  0
  5  7  1  0
  7  8  1  0
  8  9  1  0
  9 10  1  0
 10 11  1  0
 11 12  1  0
 12 13  1  0
 13 14  1  0
 14 15  1  0
 14 16  1  0
 16 17  1  0
 17 18  1  0
 18 19  1  0
 19 20  1  0
 17 21  1  0
 21 22  1  0
 22 23  1  0
 23 24  1  0
 21 25  1  0
 25 26  1  0
 26 27  1  0
 27 28  1  0
 11 29  1  0
 29 30  1  0
 30 31  1  0
 31 32  1  0
  8 33  1  0
 33 34  1  0
 34 35  1  0
 35 36  1  0
 36 37  1  0
 36 38  1  0
 38 39  1  0
 39 40  1  0
 40  3  1  0
 33  4  1  0
 40 36  1  0
 31  8  1  0
 40 38  1  0
 25 16  1  0
 25 17  1  0
  1 41  1  0
  1 42  1  0
  2 43  1  0
  3 44  1  0
  4 45  1  0
  5 46  1  0
  6 47  1  0
  6 48  1  0
  6 49  1  0
  7 50  1  0
  7 51  1  0
  9 52  1  0
  9 53  1  0
 10 54  1  0
 10 55  1  0
 11 56  1  0
 12 57  1  0
 12 58  1  0
 13 59  1  0
 13 60  1  0
 14 61  1  0
 15 62  1  0
 15 63  1  0
 15 64  1  0
 16 65  1  0
 18 66  1  0
 18 67  1  0
 19 68  1  0
 19 69  1  0
 20 70  1  0
 20 71  1  0
 20 72  1  0
 21 73  1  0
 22 74  1  0
 22 75  1  0
 23 76  1  0
 23 77  1  0
 24 78  1  0
 24 79  1  0
 24 80  1  0
 26 81  1  0
 26 82  1  0
 28 83  1  0
 28 84  1  0
 29 85  1  0
 29 86  1  0
 30 87  1  0
 30 88  1  0
 31 89  1  0
 32 90  1  0
 32 91  1  0
 32 92  1  0
 33 93  1  0
 34 94  1  0
 34 95  1  0
 35 96  1  0
 35 97  1  0
 37 98  1  0
 37 99  1  0
 37100  1  0
 38101  1  0
 39102  1  0
 39103  1  0
M  END
