
     RDKit          2D

 41 46  0  0  0  0  0  0  0  0999 V2000
   -3.9726   27.5926    3.7106 N   0  0  0  0  0  0  0  0  0  0  0  0
   -3.5435   27.3998    2.2862 C   0  0  0  0  0  0  0  0  0  0  0  0
   -2.4883   26.3500    2.4718 C   0  0  0  0  0  0  0  0  0  0  0  0
   -2.5509   26.1782    3.9607 C   0  0  0  0  0  0  0  0  0  0  0  0
   -2.6134   26.0064    5.4495 C   0  0  0  0  0  0  0  0  0  0  0  0
   -2.6759   25.8346    6.9383 C   0  0  0  0  0  0  0  0  0  0  0  0
   -2.3645   25.3189    8.3120 O   0  0  0  0  0  0  0  0  0  0  0  0
   -1.6207   24.7848    7.1239 C   0  0  0  0  0  0  0  0  0  0  0  0
   -0.7145   23.8020    7.8042 C   0  0  0  0  0  0  0  0  0  0  0  0
    0.1917   22.8192    8.4845 C   0  0  0  0  0  0  0  0  0  0  0  0
    0.9354   22.2851    7.2964 C   0  0  0  0  0  0  0  0  0  0  0  0
    1.9907   21.2353    7.4821 C   0  0  0  0  0  0  0  0  0  0  0  0
    2.3022   20.7196    8.8558 C   0  0  0  0  0  0  0  0  0  0  0  0
    1.2470   21.7694    8.6702 C   0  0  0  0  0  0  0  0  0  0  0  0
   -2.0593   26.1572    1.0475 C   0  0  0  0  0  0  0  0  0  0  0  0
   -1.4114   25.3599    2.1404 C   0  0  0  0  0  0  0  0  0  0  0  0
   -4.4498   28.3826    1.6059 C   0  0  0  0  0  0  0  0  0  0  0  0
   -3.4810   27.5716    0.7974 C   0  0  0  0  0  0  0  0  0  0  0  0
   -5.0495   28.5827    4.0421 H   0  0  0  0  0  0  0  0  0  0  0  0
   -3.6871   27.2162    4.3528 H   0  0  0  0  0  0  0  0  0  0  0  0
   -3.1009   26.7064    4.1929 H   0  0  0  0  0  0  0  0  0  0  0  0
   -1.5152   25.0980    4.0638 H   0  0  0  0  0  0  0  0  0  0  0  0
   -1.5314   24.9992    5.1945 H   0  0  0  0  0  0  0  0  0  0  0  0
   -3.6954   27.0136    5.7044 H   0  0  0  0  0  0  0  0  0  0  0  0
   -3.7529   26.8247    7.2697 H   0  0  0  0  0  0  0  0  0  0  0  0
   -1.0735   24.4677    5.7638 H   0  0  0  0  0  0  0  0  0  0  0  0
   -0.1183   23.4338    6.4781 H   0  0  0  0  0  0  0  0  0  0  0  0
   -1.3108   24.1703    9.1305 H   0  0  0  0  0  0  0  0  0  0  0  0
   -0.2373   23.0120    9.9089 H   0  0  0  0  0  0  0  0  0  0  0  0
    0.6240   22.8007    5.9227 H   0  0  0  0  0  0  0  0  0  0  0  0
    2.7344   20.7011    6.2940 H   0  0  0  0  0  0  0  0  0  0  0  0
    3.3791   19.7295    8.5243 H   0  0  0  0  0  0  0  0  0  0  0  0
    2.2396   20.5479   10.3446 H   0  0  0  0  0  0  0  0  0  0  0  0
   -2.8862   27.0877    0.2107 H   0  0  0  0  0  0  0  0  0  0  0  0
   -1.3155   25.6231   -0.1406 H   0  0  0  0  0  0  0  0  0  0  0  0
   -0.4426   24.5488    1.3319 H   0  0  0  0  0  0  0  0  0  0  0  0
   -0.9756   24.7366    3.4333 H   0  0  0  0  0  0  0  0  0  0  0  0
   -5.1935   28.9167    2.7940 H   0  0  0  0  0  0  0  0  0  0  0  0
   -5.0977   29.1799    0.5130 H   0  0  0  0  0  0  0  0  0  0  0  0
   -3.7925   28.0873   -0.5762 H   0  0  0  0  0  0  0  0  0  0  0  0
   -2.4275   26.6315    0.2913 H   0  0  0  0  0  0  0  0  0  0  0  0
  1  2  1  0
  2  3  1  0
  3  4  1  0
  4  5  1  0
  5  6  1  0
  6  7  1  0
  7  8  1  0
  8  9  1  0
  9 10  1  0
 10 11  1  0
 11 12  1  0
 12 13  1  0
 13 14  1  0
  3 15  1  0
 15 16  1  0
  2 17  1  0
 17 18  1  0
 18  2  1  0
 16  3  1  0
  8  6  1  0
 14 10  1  0
 14 11  1  0
 14 12  1  0
  1 19  1  0
  1 20  1  0
  4 21  1  0
  4 22  1  0
  5 23  1  0
  5 24  1  0
  6 25  1  0
  8 26  1  0
  9 27  1  0
  9 28  1  0
 10 29  1  0
 11 30  1  0
 12 31  1  0
 13 32  1  0
 13 33  1  0
 15 34  1  0
 15 35  1  0
 16 36  1  0
 16 37  1  0
 17 38  1  0
 17 39  1  0
 18 40  1  0
 18 41  1  0
M  END
