
     RDKit          2D

 59 61  0  0  0  0  0  0  0  0999 V2000
   -2.5797   28.5744    5.2368 C   0  0  0  0  0  0  0  0  0  0  0  0
   -2.1244   27.3428    5.9619 C   0  0  0  0  0  0  0  0  0  0  0  0
   -0.7565   26.7836    5.7047 C   0  0  0  0  0  0  0  0  0  0  0  0
    0.6113   26.2244    5.4474 C   0  0  0  0  0  0  0  0  0  0  0  0
    1.2733   27.5203    5.0836 F   0  0  0  0  0  0  0  0  0  0  0  0
    1.9792   25.6652    5.1902 C   0  0  0  0  0  0  0  0  0  0  0  0
    3.3471   25.1060    4.9329 C   0  0  0  0  0  0  0  0  0  0  0  0
    1.4936   24.2996    5.5767 C   0  0  0  0  0  0  0  0  0  0  0  0
    1.0081   22.9340    5.9632 C   0  0  0  0  0  0  0  0  0  0  0  0
    0.2783   24.9107    6.2088 C   0  0  0  0  0  0  0  0  0  0  0  0
   -0.9370   25.5217    6.8410 N   0  0  0  0  0  0  0  0  0  0  0  0
   -2.0406   25.4661    7.8553 C   0  0  0  0  0  0  0  0  0  0  0  0
   -1.9382   26.6357    6.9216 C   0  0  0  0  0  0  0  0  0  0  0  0
   -3.1535   27.2467    7.5538 C   0  0  0  0  0  0  0  0  0  0  0  0
   -3.6726   28.5651    7.0613 C   0  0  0  0  0  0  0  0  0  0  0  0
   -2.9762   29.2724    5.9366 C   0  0  0  0  0  0  0  0  0  0  0  0
   -2.2799   29.9797    4.8119 C   0  0  0  0  0  0  0  0  0  0  0  0
   -1.7609   28.6613    5.3044 C   0  0  0  0  0  0  0  0  0  0  0  0
   -1.2419   27.3429    5.7970 C   0  0  0  0  0  0  0  0  0  0  0  0
   -0.3767   26.1231    5.9128 C   0  0  0  0  0  0  0  0  0  0  0  0
    0.4884   24.9033    6.0287 C   0  0  0  0  0  0  0  0  0  0  0  0
    1.3536   23.6834    6.1446 C   0  0  0  0  0  0  0  0  0  0  0  0
    2.2188   22.4635    6.2605 N   0  0  0  0  0  0  0  0  0  0  0  0
    1.9070   21.4179    7.2898 S   0  0  0  0  0  0  0  0  0  0  0  0
   -3.8431   29.3830    5.2479 H   0  0  0  0  0  0  0  0  0  0  0  0
   -2.2683   29.6536    4.2427 H   0  0  0  0  0  0  0  0  0  0  0  0
   -3.2646   26.9405    6.8498 H   0  0  0  0  0  0  0  0  0  0  0  0
   -0.3159   28.1109    5.1623 H   0  0  0  0  0  0  0  0  0  0  0  0
    0.0020   27.9361    5.1161 H   0  0  0  0  0  0  0  0  0  0  0  0
    1.5674   27.3070    5.0425 H   0  0  0  0  0  0  0  0  0  0  0  0
    2.4648   27.0308    4.8037 H   0  0  0  0  0  0  0  0  0  0  0  0
    4.7150   24.5468    4.6757 H   0  0  0  0  0  0  0  0  0  0  0  0
    3.0149   23.9075    5.7715 H   0  0  0  0  0  0  0  0  0  0  0  0
    4.0005   26.1335    4.0570 H   0  0  0  0  0  0  0  0  0  0  0  0
    2.7090   23.6885    4.9445 H   0  0  0  0  0  0  0  0  0  0  0  0
    0.2015   21.7406    6.3815 H   0  0  0  0  0  0  0  0  0  0  0  0
    2.2358   22.0760    5.8830 H   0  0  0  0  0  0  0  0  0  0  0  0
   -0.4603   22.9520    6.2688 H   0  0  0  0  0  0  0  0  0  0  0  0
    0.4380   26.2825    5.6236 H   0  0  0  0  0  0  0  0  0  0  0  0
   -0.4467   23.9094    7.0584 H   0  0  0  0  0  0  0  0  0  0  0  0
   -3.2328   25.7086    8.7329 H   0  0  0  0  0  0  0  0  0  0  0  0
   -1.7211   24.1582    8.5165 H   0  0  0  0  0  0  0  0  0  0  0  0
   -4.3306   27.4210    8.4672 H   0  0  0  0  0  0  0  0  0  0  0  0
   -3.1922   26.0469    8.4531 H   0  0  0  0  0  0  0  0  0  0  0  0
   -4.5378   29.7849    6.9454 H   0  0  0  0  0  0  0  0  0  0  0  0
   -4.6693   28.2815    8.1457 H   0  0  0  0  0  0  0  0  0  0  0  0
   -3.9776   30.3864    6.0172 H   0  0  0  0  0  0  0  0  0  0  0  0
   -3.1452   31.1995    4.6961 H   0  0  0  0  0  0  0  0  0  0  0  0
   -1.2831   30.2633    3.7275 H   0  0  0  0  0  0  0  0  0  0  0  0
   -2.9791   29.2313    5.9687 H   0  0  0  0  0  0  0  0  0  0  0  0
   -0.6919   28.1986    4.6945 H   0  0  0  0  0  0  0  0  0  0  0  0
   -0.1689   27.2351    4.9278 H   0  0  0  0  0  0  0  0  0  0  0  0
   -1.0015   25.3397    7.0290 H   0  0  0  0  0  0  0  0  0  0  0  0
    1.1138   25.6871    4.9132 H   0  0  0  0  0  0  0  0  0  0  0  0
   -0.3719   24.3996    7.1496 H   0  0  0  0  0  0  0  0  0  0  0  0
    2.6020   24.0517    5.3991 H   0  0  0  0  0  0  0  0  0  0  0  0
    0.2827   22.9996    6.9419 H   0  0  0  0  0  0  0  0  0  0  0  0
    3.3958   22.2893    5.3472 H   0  0  0  0  0  0  0  0  0  0  0  0
    0.9948   20.2774    6.9477 H   0  0  0  0  0  0  0  0  0  0  0  0
  1  2  2  3
  2  3  1  0
  3  4  1  0
  4  5  1  0
  4  6  1  0
  6  7  1  0
  6  8  1  0
  8  9  1  0
  8 10  1  0
 10 11  1  0
 11 12  1  0
 12 13  1  0
 13 14  1  0
 14 15  1  0
 15 16  1  0
 16 17  1  0
 17 18  1  0
 18 19  1  0
 19 20  1  0
 20 21  1  0
 21 22  1  0
 22 23  1  0
 23 24  1  0
 13 11  1  0
 18 16  1  0
 19 13  1  0
  1 25  1  0
  1 26  1  0
  2 27  1  0
  3 28  1  0
  3 29  1  0
  4 30  1  0
  6 31  1  0
  7 32  1  0
  7 33  1  0
  7 34  1  0
  8 35  1  0
  9 36  1  0
  9 37  1  0
  9 38  1  0
 10 39  1  0
 10 40  1  0
 12 41  1  0
 12 42  1  0
 14 43  1  0
 14 44  1  0
 15 45  1  0
 15 46  1  0
 16 47  1  0
 17 48  1  0
 17 49  1  0
 18 50  1  0
 19 51  1  0
 20 52  1  0
 20 53  1  0
 21 54  1  0
 21 55  1  0
 22 56  1  0
 22 57  1  0
 23 58  1  0
 24 59  1  0
M  END
