
     RDKit          2D

 71 76  0  0  0  0  0  0  0  0999 V2000
   16.6144  -20.3226  -10.0334 C   0  0  0  0  0  0  0  0  0  0  0  0
   15.6607  -20.0478   -8.9087 C   0  0  0  0  0  0  0  0  0  0  0  0
   14.7223  -18.8804   -8.9894 C   0  0  0  0  0  0  0  0  0  0  0  0
   13.7838  -17.7130   -9.0701 C   0  0  0  0  0  0  0  0  0  0  0  0
   12.8454  -16.5456   -9.1508 C   0  0  0  0  0  0  0  0  0  0  0  0
   12.1549  -15.3267   -9.6868 C   0  0  0  0  0  0  0  0  0  0  0  0
   13.2333  -15.9917  -10.4897 C   0  0  0  0  0  0  0  0  0  0  0  0
   15.6455  -20.9404   -7.7033 C   0  0  0  0  0  0  0  0  0  0  0  0
   14.5529  -20.1079   -7.1005 C   0  0  0  0  0  0  0  0  0  0  0  0
   14.5377  -21.0005   -5.8951 C   0  0  0  0  0  0  0  0  0  0  0  0
   15.6303  -21.8330   -6.4978 C   0  0  0  0  0  0  0  0  0  0  0  0
   16.7228  -22.6655   -7.1004 N   0  0  0  0  0  0  0  0  0  0  0  0
   17.3324  -22.2675   -8.4120 C   0  0  0  0  0  0  0  0  0  0  0  0
   17.9419  -21.8695   -9.7235 C   0  0  0  0  0  0  0  0  0  0  0  0
   18.8257  -21.9030  -10.9350 C   0  0  0  0  0  0  0  0  0  0  0  0
   18.9436  -22.9734   -9.8909 C   0  0  0  0  0  0  0  0  0  0  0  0
   17.2060  -23.8959   -6.3916 C   0  0  0  0  0  0  0  0  0  0  0  0
   18.1886  -24.1469   -7.4967 C   0  0  0  0  0  0  0  0  0  0  0  0
   19.1713  -24.3978   -8.6019 C   0  0  0  0  0  0  0  0  0  0  0  0
   19.8179  -25.6529   -8.0955 C   0  0  0  0  0  0  0  0  0  0  0  0
   20.8198  -26.7567   -8.2628 N   0  0  0  0  0  0  0  0  0  0  0  0
   21.2619  -26.1581   -9.5651 C   0  0  0  0  0  0  0  0  0  0  0  0
   21.7040  -25.5594  -10.8675 O   0  0  0  0  0  0  0  0  0  0  0  0
   20.2600  -25.0543   -9.3979 C   0  0  0  0  0  0  0  0  0  0  0  0
   16.2233  -23.6450   -5.2864 C   0  0  0  0  0  0  0  0  0  0  0  0
   15.2406  -23.3941   -4.1812 C   0  0  0  0  0  0  0  0  0  0  0  0
   16.5209  -24.9994   -4.7143 C   0  0  0  0  0  0  0  0  0  0  0  0
   16.4645  -26.1862   -3.7987 C   0  0  0  0  0  0  0  0  0  0  0  0
   15.6048  -24.9874   -3.5266 C   0  0  0  0  0  0  0  0  0  0  0  0
   17.5557  -21.2644  -10.2559 H   0  0  0  0  0  0  0  0  0  0  0  0
   16.6296  -19.4301  -11.2388 H   0  0  0  0  0  0  0  0  0  0  0  0
   15.2816  -18.5238  -10.3347 H   0  0  0  0  0  0  0  0  0  0  0  0
   14.3664  -18.9929   -8.2849 H   0  0  0  0  0  0  0  0  0  0  0  0
   14.3865  -17.5225  -10.2629 H   0  0  0  0  0  0  0  0  0  0  0  0
   13.2244  -18.0698   -7.7248 H   0  0  0  0  0  0  0  0  0  0  0  0
   12.1316  -16.6942   -7.8400 H   0  0  0  0  0  0  0  0  0  0  0  0
   11.2012  -15.0519   -8.5620 H   0  0  0  0  0  0  0  0  0  0  0  0
   11.7955  -14.2031  -10.6134 H   0  0  0  0  0  0  0  0  0  0  0  0
   13.2485  -15.0991  -11.6952 H   0  0  0  0  0  0  0  0  0  0  0  0
   14.2144  -16.7821  -10.9747 H   0  0  0  0  0  0  0  0  0  0  0  0
   16.6710  -21.3977   -8.6979 H   0  0  0  0  0  0  0  0  0  0  0  0
   13.4603  -19.2754   -6.4979 H   0  0  0  0  0  0  0  0  0  0  0  0
   14.3523  -19.5065   -7.5838 H   0  0  0  0  0  0  0  0  0  0  0  0
   14.3895  -21.7849   -4.6252 H   0  0  0  0  0  0  0  0  0  0  0  0
   13.4451  -20.1679   -5.2925 H   0  0  0  0  0  0  0  0  0  0  0  0
   15.4820  -22.6174   -5.2279 H   0  0  0  0  0  0  0  0  0  0  0  0
   18.2437  -23.4572   -8.3495 H   0  0  0  0  0  0  0  0  0  0  0  0
   16.5021  -21.0381   -8.6339 H   0  0  0  0  0  0  0  0  0  0  0  0
   17.3587  -20.6196  -10.3131 H   0  0  0  0  0  0  0  0  0  0  0  0
   18.3426  -20.6725  -11.6439 H   0  0  0  0  0  0  0  0  0  0  0  0
   19.8774  -22.3637  -11.9003 H   0  0  0  0  0  0  0  0  0  0  0  0
   20.0369  -23.6851  -10.6312 H   0  0  0  0  0  0  0  0  0  0  0  0
   18.8135  -23.8688   -8.6944 H   0  0  0  0  0  0  0  0  0  0  0  0
   17.8052  -25.1478   -5.8226 H   0  0  0  0  0  0  0  0  0  0  0  0
   18.5488  -25.3373   -6.6581 H   0  0  0  0  0  0  0  0  0  0  0  0
   18.0895  -23.0884   -8.5549 H   0  0  0  0  0  0  0  0  0  0  0  0
   19.1296  -23.3759   -9.6991 H   0  0  0  0  0  0  0  0  0  0  0  0
   19.2407  -26.0922   -6.7826 H   0  0  0  0  0  0  0  0  0  0  0  0
   21.2156  -27.9605   -7.4601 H   0  0  0  0  0  0  0  0  0  0  0  0
   22.2638  -27.2618   -9.7324 H   0  0  0  0  0  0  0  0  0  0  0  0
   22.9692  -26.0330  -11.5195 H   0  0  0  0  0  0  0  0  0  0  0  0
   20.5584  -24.3079  -10.6643 H   0  0  0  0  0  0  0  0  0  0  0  0
   15.5932  -22.2908   -5.4242 H   0  0  0  0  0  0  0  0  0  0  0  0
   14.2580  -23.1433   -3.0760 H   0  0  0  0  0  0  0  0  0  0  0  0
   14.6340  -22.1481   -4.7553 H   0  0  0  0  0  0  0  0  0  0  0  0
   15.4788  -24.5216   -3.2209 H   0  0  0  0  0  0  0  0  0  0  0  0
   17.5476  -25.6353   -5.6038 H   0  0  0  0  0  0  0  0  0  0  0  0
   17.4642  -27.0806   -4.4698 H   0  0  0  0  0  0  0  0  0  0  0  0
   16.0608  -27.0624   -2.6501 H   0  0  0  0  0  0  0  0  0  0  0  0
   14.9026  -25.4473   -2.2834 H   0  0  0  0  0  0  0  0  0  0  0  0
   14.8086  -23.7244   -3.3828 H   0  0  0  0  0  0  0  0  0  0  0  0
  1  2  2  3
  2  3  1  0
  3  4  1  0
  4  5  1  0
  5  6  1  0
  6  7  1  0
  2  8  1  0
  8  9  1  0
  9 10  1  0
 10 11  1  0
 11 12  1  0
 12 13  1  0
 13 14  1  0
 14 15  1  0
 15 16  1  0
 12 17  1  0
 17 18  1  0
 18 19  1  0
 19 20  1  0
 20 21  1  0
 21 22  1  0
 22 23  1  0
 22 24  1  0
 17 25  1  0
 25 26  1  0
 25 27  1  0
 27 28  1  0
 28 29  1  0
  7  5  1  0
 11  8  1  0
 16 14  1  0
 24 19  1  0
 29 27  1  0
 24 20  1  0
  1 30  1  0
  1 31  1  0
  3 32  1  0
  3 33  1  0
  4 34  1  0
  4 35  1  0
  5 36  1  0
  6 37  1  0
  6 38  1  0
  7 39  1  0
  7 40  1  0
  8 41  1  0
  9 42  1  0
  9 43  1  0
 10 44  1  0
 10 45  1  0
 11 46  1  0
 13 47  1  0
 13 48  1  0
 14 49  1  0
 15 50  1  0
 15 51  1  0
 16 52  1  0
 16 53  1  0
 17 54  1  0
 18 55  1  0
 18 56  1  0
 19 57  1  0
 20 58  1  0
 21 59  1  0
 22 60  1  0
 23 61  1  0
 24 62  1  0
 25 63  1  0
 26 64  1  0
 26 65  1  0
 26 66  1  0
 27 67  1  0
 28 68  1  0
 28 69  1  0
 29 70  1  0
 29 71  1  0
M  END
