
     RDKit          2D

 69 76  0  0  0  0  0  0  0  0999 V2000
   19.5066  -20.0453   -9.2518 C   0  0  0  0  0  0  0  0  0  0  0  0
   18.6466  -19.2287   -8.3334 C   0  0  0  0  0  0  0  0  0  0  0  0
   17.7865  -18.4120   -7.4150 C   0  0  0  0  0  0  0  0  0  0  0  0
   17.5432  -20.2355   -8.4715 C   0  0  0  0  0  0  0  0  0  0  0  0
   16.4399  -21.2422   -8.6096 C   0  0  0  0  0  0  0  0  0  0  0  0
   15.0820  -21.2173   -7.9727 F   0  0  0  0  0  0  0  0  0  0  0  0
   17.9795  -19.6225   -8.2797 O   0  0  0  0  0  0  0  0  0  0  0  0
   19.3656  -19.1597   -8.6182 C   0  0  0  0  0  0  0  0  0  0  0  0
   20.2267  -19.9778   -9.5343 C   0  0  0  0  0  0  0  0  0  0  0  0
   21.5241  -20.1829  -10.2586 C   0  0  0  0  0  0  0  0  0  0  0  0
   22.8215  -20.3880  -10.9829 C   0  0  0  0  0  0  0  0  0  0  0  0
   24.1190  -20.5931  -11.7072 C   0  0  0  0  0  0  0  0  0  0  0  0
   25.4164  -20.7983  -12.4315 C   0  0  0  0  0  0  0  0  0  0  0  0
   26.5542  -21.4975  -13.1144 C   0  0  0  0  0  0  0  0  0  0  0  0
   25.4074  -22.2924  -12.5639 C   0  0  0  0  0  0  0  0  0  0  0  0
   25.8501  -23.6776  -12.9319 C   0  0  0  0  0  0  0  0  0  0  0  0
   20.9992  -21.4638  -10.8361 C   0  0  0  0  0  0  0  0  0  0  0  0
   19.8958  -22.4706  -10.9742 C   0  0  0  0  0  0  0  0  0  0  0  0
   18.7925  -23.4774  -11.1123 C   0  0  0  0  0  0  0  0  0  0  0  0
   18.0502  -24.7032  -11.5553 C   0  0  0  0  0  0  0  0  0  0  0  0
   17.4950  -23.2723  -10.3880 N   0  0  0  0  0  0  0  0  0  0  0  0
   17.3010  -22.0603   -9.5256 C   0  0  0  0  0  0  0  0  0  0  0  0
   16.0123  -22.8211   -9.4218 O   0  0  0  0  0  0  0  0  0  0  0  0
   14.8950  -22.2914   -8.5728 O   0  0  0  0  0  0  0  0  0  0  0  0
   13.6064  -23.0521   -8.4690 C   0  0  0  0  0  0  0  0  0  0  0  0
   12.4595  -24.0147   -8.5589 C   0  0  0  0  0  0  0  0  0  0  0  0
   11.3421  -23.4850   -7.7098 C   0  0  0  0  0  0  0  0  0  0  0  0
   11.7984  -22.1951   -7.0951 C   0  0  0  0  0  0  0  0  0  0  0  0
   13.1978  -21.9276   -7.5643 C   0  0  0  0  0  0  0  0  0  0  0  0
   18.4043  -21.0536   -9.3875 C   0  0  0  0  0  0  0  0  0  0  0  0
   19.7017  -21.2587  -10.1118 C   0  0  0  0  0  0  0  0  0  0  0  0
   20.6088  -20.5951  -10.1079 H   0  0  0  0  0  0  0  0  0  0  0  0
   20.7095  -19.1497   -9.2204 H   0  0  0  0  0  0  0  0  0  0  0  0
   18.6413  -21.2158   -9.6142 H   0  0  0  0  0  0  0  0  0  0  0  0
   19.7499  -18.2219   -8.1954 H   0  0  0  0  0  0  0  0  0  0  0  0
   16.9264  -17.5954   -6.4967 H   0  0  0  0  0  0  0  0  0  0  0  0
   18.7802  -17.3182   -7.1585 H   0  0  0  0  0  0  0  0  0  0  0  0
   16.5831  -19.3069   -7.4478 H   0  0  0  0  0  0  0  0  0  0  0  0
   16.5540  -19.5461   -7.5791 H   0  0  0  0  0  0  0  0  0  0  0  0
   20.5124  -18.1971   -8.5283 H   0  0  0  0  0  0  0  0  0  0  0  0
   19.0992  -17.9737   -7.7393 H   0  0  0  0  0  0  0  0  0  0  0  0
   22.0491  -18.9019   -9.6810 H   0  0  0  0  0  0  0  0  0  0  0  0
   22.6851  -19.0327  -11.6110 H   0  0  0  0  0  0  0  0  0  0  0  0
   23.1150  -21.7582  -10.4477 H   0  0  0  0  0  0  0  0  0  0  0  0
   24.2433  -21.9581  -11.0978 H   0  0  0  0  0  0  0  0  0  0  0  0
   23.8374  -19.2133  -12.2237 H   0  0  0  0  0  0  0  0  0  0  0  0
   25.8760  -19.3754  -12.5506 H   0  0  0  0  0  0  0  0  0  0  0  0
   27.4089  -20.3175  -13.4707 H   0  0  0  0  0  0  0  0  0  0  0  0
   27.5128  -22.4762  -13.7255 H   0  0  0  0  0  0  0  0  0  0  0  0
   24.1434  -22.7820  -11.9216 H   0  0  0  0  0  0  0  0  0  0  0  0
   26.2928  -25.0627  -13.2998 H   0  0  0  0  0  0  0  0  0  0  0  0
   24.5996  -24.2390  -12.3226 H   0  0  0  0  0  0  0  0  0  0  0  0
   27.1451  -23.2891  -13.5814 H   0  0  0  0  0  0  0  0  0  0  0  0
   22.0055  -22.1339  -11.7241 H   0  0  0  0  0  0  0  0  0  0  0  0
   18.7933  -21.9204  -10.1188 H   0  0  0  0  0  0  0  0  0  0  0  0
   19.8321  -24.1082  -11.9904 H   0  0  0  0  0  0  0  0  0  0  0  0
   17.3080  -25.9291  -11.9984 H   0  0  0  0  0  0  0  0  0  0  0  0
   19.2371  -25.1280  -12.3682 H   0  0  0  0  0  0  0  0  0  0  0  0
   16.7817  -24.4309  -10.8025 H   0  0  0  0  0  0  0  0  0  0  0  0
   16.2949  -24.1718  -10.4133 H   0  0  0  0  0  0  0  0  0  0  0  0
   14.2843  -24.0176   -9.3954 H   0  0  0  0  0  0  0  0  0  0  0  0
   13.3771  -24.7790   -9.4665 H   0  0  0  0  0  0  0  0  0  0  0  0
   11.5044  -25.1371   -8.8386 H   0  0  0  0  0  0  0  0  0  0  0  0
   10.6207  -24.7181   -8.1670 H   0  0  0  0  0  0  0  0  0  0  0  0
   10.0740  -23.2132   -6.9563 H   0  0  0  0  0  0  0  0  0  0  0  0
   10.4349  -22.1929   -6.4701 H   0  0  0  0  0  0  0  0  0  0  0  0
   11.9697  -20.9048   -6.3497 H   0  0  0  0  0  0  0  0  0  0  0  0
   13.0766  -20.6931   -6.7208 H   0  0  0  0  0  0  0  0  0  0  0  0
   14.5292  -21.2613   -7.7479 H   0  0  0  0  0  0  0  0  0  0  0  0
  1  2  1  0
  2  3  1  0
  2  4  1  0
  4  5  1  0
  5  6  1  0
  5  7  1  0
  7  8  1  0
  8  9  1  0
  9 10  1  0
 10 11  1  0
 11 12  1  0
 12 13  1  0
 13 14  1  0
 14 15  1  0
 15 16  1  0
 10 17  1  0
 17 18  1  0
 18 19  1  0
 19 20  1  0
 19 21  1  0
 21 22  1  0
 22 23  1  0
 23 24  1  0
 24 25  1  0
 25 26  1  0
 26 27  1  0
 27 28  1  0
 28 29  1  0
 22 30  1  0
 30 31  1  0
 30  4  1  0
 22  5  1  0
 29 25  1  0
 30  9  1  0
 31  9  1  0
 15 13  1  0
 31 17  1  0
 31 18  1  0
  1 32  1  0
  1 33  1  0
  1 34  1  0
  2 35  1  0
  3 36  1  0
  3 37  1  0
  3 38  1  0
  4 39  1  0
  8 40  1  0
  8 41  1  0
 10 42  1  0
 11 43  1  0
 11 44  1  0
 12 45  1  0
 12 46  1  0
 13 47  1  0
 14 48  1  0
 14 49  1  0
 15 50  1  0
 16 51  1  0
 16 52  1  0
 16 53  1  0
 17 54  1  0
 18 55  1  0
 19 56  1  0
 20 57  1  0
 20 58  1  0
 20 59  1  0
 21 60  1  0
 25 61  1  0
 26 62  1  0
 26 63  1  0
 27 64  1  0
 27 65  1  0
 28 66  1  0
 28 67  1  0
 29 68  1  0
 29 69  1  0
M  END
