
     RDKit          2D

 59 66  0  0  0  0  0  0  0  0999 V2000
   22.7518  -24.7865   -7.2943 C   0  0  0  0  0  0  0  0  0  0  0  0
   21.3327  -24.3006   -7.2849 C   0  0  0  0  0  0  0  0  0  0  0  0
   21.2625  -23.6753   -8.6465 C   0  0  0  0  0  0  0  0  0  0  0  0
   20.7080  -22.9566   -9.8407 C   0  0  0  0  0  0  0  0  0  0  0  0
   20.6378  -22.3313  -11.2023 C   0  0  0  0  0  0  0  0  0  0  0  0
   21.9101  -22.9758  -10.7377 C   0  0  0  0  0  0  0  0  0  0  0  0
   22.7747  -22.7431  -11.9412 C   0  0  0  0  0  0  0  0  0  0  0  0
   22.8821  -23.7011   -9.8550 C   0  0  0  0  0  0  0  0  0  0  0  0
   20.0604  -23.6561   -7.7496 C   0  0  0  0  0  0  0  0  0  0  0  0
   18.8583  -23.6369   -6.8527 O   0  0  0  0  0  0  0  0  0  0  0  0
   18.7881  -23.0116   -8.2143 C   0  0  0  0  0  0  0  0  0  0  0  0
   17.3691  -22.5257   -8.2050 O   0  0  0  0  0  0  0  0  0  0  0  0
   16.8145  -21.8070   -9.3991 C   0  0  0  0  0  0  0  0  0  0  0  0
   15.4198  -21.5383   -8.9169 C   0  0  0  0  0  0  0  0  0  0  0  0
   14.2177  -21.5191   -8.0200 C   0  0  0  0  0  0  0  0  0  0  0  0
   15.4900  -22.1636   -7.5553 C   0  0  0  0  0  0  0  0  0  0  0  0
   15.0673  -22.6201   -6.1904 C   0  0  0  0  0  0  0  0  0  0  0  0
   13.6720  -22.3531   -5.7090 C   0  0  0  0  0  0  0  0  0  0  0  0
   14.6447  -23.0766   -4.8255 C   0  0  0  0  0  0  0  0  0  0  0  0
   16.0400  -23.3436   -5.3069 C   0  0  0  0  0  0  0  0  0  0  0  0
   18.0167  -21.8262  -10.2961 C   0  0  0  0  0  0  0  0  0  0  0  0
   16.7444  -21.1817  -10.7608 C   0  0  0  0  0  0  0  0  0  0  0  0
   17.1670  -20.7252  -12.1257 C   0  0  0  0  0  0  0  0  0  0  0  0
   16.1950  -19.9999  -13.0083 C   0  0  0  0  0  0  0  0  0  0  0  0
   16.6177  -19.5434  -14.3732 C   0  0  0  0  0  0  0  0  0  0  0  0
   18.0124  -19.8121  -14.8554 N   0  0  0  0  0  0  0  0  0  0  0  0
   18.9844  -20.5374  -13.9728 C   0  0  0  0  0  0  0  0  0  0  0  0
   18.5617  -20.9939  -12.6079 C   0  0  0  0  0  0  0  0  0  0  0  0
   24.1709  -25.2725   -7.3036 H   0  0  0  0  0  0  0  0  0  0  0  0
   22.9811  -24.4696   -8.1973 H   0  0  0  0  0  0  0  0  0  0  0  0
   22.5739  -25.3328   -5.9086 H   0  0  0  0  0  0  0  0  0  0  0  0
   20.9100  -24.7571   -5.9201 H   0  0  0  0  0  0  0  0  0  0  0  0
   22.0037  -23.8181   -8.9028 H   0  0  0  0  0  0  0  0  0  0  0  0
   19.3133  -22.6879   -9.3585 H   0  0  0  0  0  0  0  0  0  0  0  0
   19.2187  -21.8454  -11.1931 H   0  0  0  0  0  0  0  0  0  0  0  0
   20.8655  -21.8606  -12.4470 H   0  0  0  0  0  0  0  0  0  0  0  0
   23.6392  -22.5104  -13.1447 H   0  0  0  0  0  0  0  0  0  0  0  0
   23.7760  -23.2797  -11.5102 H   0  0  0  0  0  0  0  0  0  0  0  0
   21.8517  -22.0958  -12.6841 H   0  0  0  0  0  0  0  0  0  0  0  0
   23.8542  -24.4264   -8.9724 H   0  0  0  0  0  0  0  0  0  0  0  0
   23.8226  -23.6828  -10.6240 H   0  0  0  0  0  0  0  0  0  0  0  0
   22.5462  -23.8948   -9.1586 H   0  0  0  0  0  0  0  0  0  0  0  0
   19.2108  -22.5551   -9.5792 H   0  0  0  0  0  0  0  0  0  0  0  0
   14.7086  -20.8072  -10.0168 H   0  0  0  0  0  0  0  0  0  0  0  0
   13.2457  -20.7938   -8.9026 H   0  0  0  0  0  0  0  0  0  0  0  0
   13.2207  -21.6653   -6.9089 H   0  0  0  0  0  0  0  0  0  0  0  0
   16.8236  -22.7680   -7.2293 H   0  0  0  0  0  0  0  0  0  0  0  0
   12.9604  -21.6235   -6.8095 H   0  0  0  0  0  0  0  0  0  0  0  0
   12.4694  -22.3353   -4.8125 H   0  0  0  0  0  0  0  0  0  0  0  0
   14.2220  -23.5332   -3.4606 H   0  0  0  0  0  0  0  0  0  0  0  0
   16.5949  -24.0609   -4.1121 H   0  0  0  0  0  0  0  0  0  0  0  0
   17.2425  -23.3614   -6.2033 H   0  0  0  0  0  0  0  0  0  0  0  0
   18.9887  -22.5515   -9.4134 H   0  0  0  0  0  0  0  0  0  0  0  0
   18.8811  -21.5935  -11.4996 H   0  0  0  0  0  0  0  0  0  0  0  0
   15.3577  -20.6325  -10.9202 H   0  0  0  0  0  0  0  0  0  0  0  0
   14.8003  -19.7311  -12.5261 H   0  0  0  0  0  0  0  0  0  0  0  0
   15.6456  -18.8180  -15.2559 H   0  0  0  0  0  0  0  0  0  0  0  0
   20.3791  -20.8062  -14.4550 H   0  0  0  0  0  0  0  0  0  0  0  0
   19.5338  -21.7193  -11.7252 H   0  0  0  0  0  0  0  0  0  0  0  0
  1  2  1  0
  2  3  1  0
  3  4  1  0
  4  5  1  0
  5  6  1  0
  6  7  1  0
  6  8  1  0
  3  9  1  0
  9 10  1  0
 10 11  1  0
 11 12  1  0
 12 13  1  0
 13 14  1  0
 14 15  1  0
 15 16  1  0
 16 17  1  0
 17 18  1  0
 18 19  1  0
 19 20  1  0
 13 21  1  0
 21 22  1  0
 22 23  1  0
 23 24  2  0
 24 25  1  0
 25 26  2  0
 26 27  1  0
 27 28  2  0
  9  2  1  0
 22 13  1  0
 28 23  1  0
  6  4  1  0
 11  9  1  0
 16 14  1  0
 19 17  1  0
 20 17  1  0
  1 29  1  0
  1 30  1  0
  1 31  1  0
  2 32  1  0
  3 33  1  0
  4 34  1  0
  5 35  1  0
  5 36  1  0
  7 37  1  0
  7 38  1  0
  7 39  1  0
  8 40  1  0
  8 41  1  0
  8 42  1  0
 11 43  1  0
 14 44  1  0
 15 45  1  0
 15 46  1  0
 16 47  1  0
 18 48  1  0
 18 49  1  0
 19 50  1  0
 20 51  1  0
 20 52  1  0
 21 53  1  0
 21 54  1  0
 22 55  1  0
 24 56  1  0
 25 57  1  0
 27 58  1  0
 28 59  1  0
M  END
