
     RDKit          2D

 30 33  0  0  0  0  0  0  0  0999 V2000
    5.4131   25.6409    4.8009 O   0  0  0  0  0  0  0  0  0  0  0  0
    4.1048   25.2486    4.1809 C   0  0  0  0  0  0  0  0  0  0  0  0
    3.1563   25.7953    5.2064 C   0  0  0  0  0  0  0  0  0  0  0  0
    2.6249   25.0935    3.9918 C   0  0  0  0  0  0  0  0  0  0  0  0
    1.2229   25.3195    4.4746 C   0  0  0  0  0  0  0  0  0  0  0  0
    0.2744   25.8662    5.5002 C   0  0  0  0  0  0  0  0  0  0  0  0
   -1.0339   25.4739    4.8801 C   0  0  0  0  0  0  0  0  0  0  0  0
   -1.8949   24.8496    3.8222 C   0  0  0  0  0  0  0  0  0  0  0  0
   -3.3915   24.7670    3.7628 C   0  0  0  0  0  0  0  0  0  0  0  0
   -4.3966   25.2883    4.7465 C   0  0  0  0  0  0  0  0  0  0  0  0
   -4.1536   26.0209    6.0327 C   0  0  0  0  0  0  0  0  0  0  0  0
   -2.8453   26.4132    6.6527 C   0  0  0  0  0  0  0  0  0  0  0  0
   -1.4569   26.1697    6.1397 C   0  0  0  0  0  0  0  0  0  0  0  0
    1.7543   26.0213    5.6892 C   0  0  0  0  0  0  0  0  0  0  0  0
    6.7016   25.2964    4.1146 H   0  0  0  0  0  0  0  0  0  0  0  0
    4.5990   24.5658    2.9402 H   0  0  0  0  0  0  0  0  0  0  0  0
    4.0325   26.4146    6.2546 H   0  0  0  0  0  0  0  0  0  0  0  0
    2.4745   24.3571    2.6936 H   0  0  0  0  0  0  0  0  0  0  0  0
    0.5737   24.7224    3.4527 H   0  0  0  0  0  0  0  0  0  0  0  0
    0.1053   26.2443    6.1812 H   0  0  0  0  0  0  0  0  0  0  0  0
   -0.2580   24.9510    3.9069 H   0  0  0  0  0  0  0  0  0  0  0  0
   -1.1624   24.2253    2.6716 H   0  0  0  0  0  0  0  0  0  0  0  0
   -3.9576   24.0711    2.5606 H   0  0  0  0  0  0  0  0  0  0  0  0
   -5.8351   25.0447    4.3981 H   0  0  0  0  0  0  0  0  0  0  0  0
   -5.3812   26.4131    6.8003 H   0  0  0  0  0  0  0  0  0  0  0  0
   -3.8506   26.9345    7.6365 H   0  0  0  0  0  0  0  0  0  0  0  0
   -2.1405   27.0806    7.7963 H   0  0  0  0  0  0  0  0  0  0  0  0
   -1.0354   26.8868    7.3879 H   0  0  0  0  0  0  0  0  0  0  0  0
   -0.6735   26.2608    6.2557 H   0  0  0  0  0  0  0  0  0  0  0  0
    1.9047   26.7576    6.9874 H   0  0  0  0  0  0  0  0  0  0  0  0
  1  2  1  0
  2  3  1  0
  3  4  1  0
  4  5  1  0
  5  6  1  0
  6  7  1  0
  7  8  1  0
  8  9  2  0
  9 10  1  0
 10 11  2  0
 11 12  1  0
 12 13  1  0
  6 14  1  0
  4  2  1  0
 14  5  1  0
 14  3  1  0
 13  7  1  0
  1 15  1  0
  2 16  1  0
  3 17  1  0
  4 18  1  0
  5 19  1  0
  6 20  1  0
  7 21  1  0
  8 22  1  0
  9 23  1  0
 10 24  1  0
 11 25  1  0
 12 26  1  0
 12 27  1  0
 13 28  1  0
 13 29  1  0
 14 30  1  0
M  END
