
     RDKit          2D

 41 45  0  0  0  0  0  0  0  0999 V2000
   21.2908  -22.0816  -13.3578 C   0  0  0  0  0  0  0  0  0  0  0  0
   22.2141  -20.9387  -13.0557 C   0  0  0  0  0  0  0  0  0  0  0  0
   23.1374  -19.7957  -12.7536 N   0  0  0  0  0  0  0  0  0  0  0  0
   21.0493  -20.1246  -12.5756 N   0  0  0  0  0  0  0  0  0  0  0  0
   19.8123  -20.8088  -12.0736 C   0  0  0  0  0  0  0  0  0  0  0  0
   19.0388  -20.9205  -13.3539 C   0  0  0  0  0  0  0  0  0  0  0  0
   17.6823  -21.5609  -13.3572 C   0  0  0  0  0  0  0  0  0  0  0  0
   18.4559  -21.4492  -12.0769 C   0  0  0  0  0  0  0  0  0  0  0  0
   17.8730  -21.9779  -10.7999 C   0  0  0  0  0  0  0  0  0  0  0  0
   17.2902  -22.5066   -9.5229 C   0  0  0  0  0  0  0  0  0  0  0  0
   16.7073  -23.0352   -8.2459 C   0  0  0  0  0  0  0  0  0  0  0  0
   15.2501  -23.0269   -8.6015 C   0  0  0  0  0  0  0  0  0  0  0  0
   14.2314  -23.4889   -7.6021 O   0  0  0  0  0  0  0  0  0  0  0  0
   15.6887  -23.4973   -7.2464 C   0  0  0  0  0  0  0  0  0  0  0  0
   16.1272  -23.9677   -5.8913 N   0  0  0  0  0  0  0  0  0  0  0  0
   16.2431  -22.9904   -4.7594 C   0  0  0  0  0  0  0  0  0  0  0  0
   15.8632  -22.1613   -3.5684 C   0  0  0  0  0  0  0  0  0  0  0  0
   14.8555  -23.0778   -4.1965 C   0  0  0  0  0  0  0  0  0  0  0  0
   20.3676  -23.2246  -13.6600 H   0  0  0  0  0  0  0  0  0  0  0  0
   22.4693  -23.0021  -13.4768 H   0  0  0  0  0  0  0  0  0  0  0  0
   20.5303  -21.8427  -13.3564 H   0  0  0  0  0  0  0  0  0  0  0  0
   23.3789  -21.7527  -13.5359 H   0  0  0  0  0  0  0  0  0  0  0  0
   24.6196  -20.0208  -12.7082 H   0  0  0  0  0  0  0  0  0  0  0  0
   22.5783  -18.4277  -12.4968 H   0  0  0  0  0  0  0  0  0  0  0  0
   21.1214  -18.6266  -12.5973 H   0  0  0  0  0  0  0  0  0  0  0  0
   19.9084  -20.9187  -11.2899 H   0  0  0  0  0  0  0  0  0  0  0  0
   19.6216  -20.3918  -14.6309 H   0  0  0  0  0  0  0  0  0  0  0  0
   17.3384  -21.4350  -14.8118 H   0  0  0  0  0  0  0  0  0  0  0  0
   16.4454  -22.2450  -12.8552 H   0  0  0  0  0  0  0  0  0  0  0  0
   16.6959  -22.5142  -11.5592 H   0  0  0  0  0  0  0  0  0  0  0  0
   19.0502  -21.4415  -10.0405 H   0  0  0  0  0  0  0  0  0  0  0  0
   18.6525  -22.4927   -8.8953 H   0  0  0  0  0  0  0  0  0  0  0  0
   15.9278  -22.5205  -10.1504 H   0  0  0  0  0  0  0  0  0  0  0  0
   17.9620  -23.2272   -7.4467 H   0  0  0  0  0  0  0  0  0  0  0  0
   14.8115  -22.5565   -9.9567 H   0  0  0  0  0  0  0  0  0  0  0  0
   16.4497  -25.4156   -5.6681 H   0  0  0  0  0  0  0  0  0  0  0  0
   17.6710  -22.5635   -4.9290 H   0  0  0  0  0  0  0  0  0  0  0  0
   17.1592  -21.4465   -3.3245 H   0  0  0  0  0  0  0  0  0  0  0  0
   15.0332  -21.5804   -2.4622 H   0  0  0  0  0  0  0  0  0  0  0  0
   13.6755  -22.8152   -3.3084 H   0  0  0  0  0  0  0  0  0  0  0  0
   14.2576  -24.0854   -5.1330 H   0  0  0  0  0  0  0  0  0  0  0  0
  1  2  1  0
  2  3  1  0
  2  4  1  0
  4  5  1  0
  5  6  1  0
  6  7  1  0
  7  8  1  0
  8  9  1  0
  9 10  1  0
 10 11  1  0
 11 12  1  0
 12 13  1  0
 13 14  1  0
 14 15  1  0
 15 16  1  0
 16 17  1  0
 17 18  1  0
  8  5  1  0
 14 11  1  0
 18 16  1  0
  8  6  1  0
 14 12  1  0
  1 19  1  0
  1 20  1  0
  1 21  1  0
  2 22  1  0
  3 23  1  0
  3 24  1  0
  4 25  1  0
  5 26  1  0
  6 27  1  0
  7 28  1  0
  7 29  1  0
  9 30  1  0
  9 31  1  0
 10 32  1  0
 10 33  1  0
 11 34  1  0
 12 35  1  0
 15 36  1  0
 16 37  1  0
 17 38  1  0
 17 39  1  0
 18 40  1  0
 18 41  1  0
M  END
