
     RDKit          2D

 66 68  0  0  0  0  0  0  0  0999 V2000
   20.8139  -21.2773   -5.6105 C   0  0  0  0  0  0  0  0  0  0  0  0
   20.4456  -21.3716   -7.0616 C   0  0  0  0  0  0  0  0  0  0  0  0
   21.4460  -21.8780   -8.0579 C   0  0  0  0  0  0  0  0  0  0  0  0
   22.4464  -22.3845   -9.0543 C   0  0  0  0  0  0  0  0  0  0  0  0
   23.4468  -22.8910  -10.0506 C   0  0  0  0  0  0  0  0  0  0  0  0
   24.4472  -23.3975  -11.0469 C   0  0  0  0  0  0  0  0  0  0  0  0
   22.4481  -22.0637   -6.9574 C   0  0  0  0  0  0  0  0  0  0  0  0
   23.4502  -22.2494   -5.8567 C   0  0  0  0  0  0  0  0  0  0  0  0
   24.4523  -22.4351   -4.7562 C   0  0  0  0  0  0  0  0  0  0  0  0
   25.4545  -22.6208   -3.6555 C   0  0  0  0  0  0  0  0  0  0  0  0
   19.0769  -20.9593   -7.5163 C   0  0  0  0  0  0  0  0  0  0  0  0
   17.7083  -20.5470   -7.9710 C   0  0  0  0  0  0  0  0  0  0  0  0
   18.2005  -20.4734   -9.3861 C   0  0  0  0  0  0  0  0  0  0  0  0
   17.0059  -20.0562  -10.1915 C   0  0  0  0  0  0  0  0  0  0  0  0
   15.8112  -19.6389  -10.9969 C   0  0  0  0  0  0  0  0  0  0  0  0
   14.9818  -19.6023   -9.7477 C   0  0  0  0  0  0  0  0  0  0  0  0
   13.7871  -19.1851  -10.5531 C   0  0  0  0  0  0  0  0  0  0  0  0
   12.5925  -18.7678  -11.3586 C   0  0  0  0  0  0  0  0  0  0  0  0
   11.3978  -18.3505  -12.1640 C   0  0  0  0  0  0  0  0  0  0  0  0
   10.7461  -17.0243  -11.9070 N   0  0  0  0  0  0  0  0  0  0  0  0
   10.8549  -19.2596  -13.2264 C   0  0  0  0  0  0  0  0  0  0  0  0
   10.3121  -20.1687  -14.2889 C   0  0  0  0  0  0  0  0  0  0  0  0
    9.7504  -18.2819  -13.4986 O   0  0  0  0  0  0  0  0  0  0  0  0
   14.6166  -19.2216  -11.8024 N   0  0  0  0  0  0  0  0  0  0  0  0
   19.3112  -20.6158  -10.3841 C   0  0  0  0  0  0  0  0  0  0  0  0
   19.5692  -20.8857   -8.9314 C   0  0  0  0  0  0  0  0  0  0  0  0
   21.7718  -21.5448   -5.1561 H   0  0  0  0  0  0  0  0  0  0  0  0
   19.8135  -20.7709   -4.6143 H   0  0  0  0  0  0  0  0  0  0  0  0
   20.7392  -21.7788   -9.0412 H   0  0  0  0  0  0  0  0  0  0  0  0
   23.1057  -22.5300   -8.4809 H   0  0  0  0  0  0  0  0  0  0  0  0
   21.4445  -22.1986  -10.1549 H   0  0  0  0  0  0  0  0  0  0  0  0
   22.3742  -22.9505  -11.0974 H   0  0  0  0  0  0  0  0  0  0  0  0
   24.5195  -22.8315   -9.0038 H   0  0  0  0  0  0  0  0  0  0  0  0
   25.4476  -23.9040  -12.0433 H   0  0  0  0  0  0  0  0  0  0  0  0
   25.4552  -23.5663   -9.9490 H   0  0  0  0  0  0  0  0  0  0  0  0
   23.4393  -23.2286  -12.1448 H   0  0  0  0  0  0  0  0  0  0  0  0
   23.1080  -22.3698   -7.4627 H   0  0  0  0  0  0  0  0  0  0  0  0
   21.9155  -21.7432   -6.0578 H   0  0  0  0  0  0  0  0  0  0  0  0
   24.4524  -22.7508   -6.8539 H   0  0  0  0  0  0  0  0  0  0  0  0
   22.5777  -21.7744   -4.7330 H   0  0  0  0  0  0  0  0  0  0  0  0
   23.4549  -21.9202   -3.7612 H   0  0  0  0  0  0  0  0  0  0  0  0
   25.4497  -22.9500   -5.7512 H   0  0  0  0  0  0  0  0  0  0  0  0
   26.4566  -22.8065   -2.5550 H   0  0  0  0  0  0  0  0  0  0  0  0
   24.4551  -22.1113   -2.6596 H   0  0  0  0  0  0  0  0  0  0  0  0
   26.4537  -23.1303   -4.6514 H   0  0  0  0  0  0  0  0  0  0  0  0
   18.5847  -21.0329   -6.1013 H   0  0  0  0  0  0  0  0  0  0  0  0
   17.2160  -20.6207   -6.5560 H   0  0  0  0  0  0  0  0  0  0  0  0
   16.5361  -20.2375   -8.0511 H   0  0  0  0  0  0  0  0  0  0  0  0
   17.6742  -20.0773  -11.5342 H   0  0  0  0  0  0  0  0  0  0  0  0
   16.4679  -20.0086   -9.3688 H   0  0  0  0  0  0  0  0  0  0  0  0
   16.6408  -19.6755  -12.2461 H   0  0  0  0  0  0  0  0  0  0  0  0
   14.1523  -19.5658   -8.4985 H   0  0  0  0  0  0  0  0  0  0  0  0
   15.6106  -19.8622   -9.0366 H   0  0  0  0  0  0  0  0  0  0  0  0
   12.9577  -19.1485   -9.3039 H   0  0  0  0  0  0  0  0  0  0  0  0
   13.3460  -17.5699  -11.8557 H   0  0  0  0  0  0  0  0  0  0  0  0
   11.8389  -19.9657  -10.8614 H   0  0  0  0  0  0  0  0  0  0  0  0
    9.5515  -16.6070  -12.7124 H   0  0  0  0  0  0  0  0  0  0  0  0
   11.9595  -20.2374  -12.9543 H   0  0  0  0  0  0  0  0  0  0  0  0
    9.7692  -21.0779  -15.3513 H   0  0  0  0  0  0  0  0  0  0  0  0
    9.2459  -19.1622  -14.6054 H   0  0  0  0  0  0  0  0  0  0  0  0
   11.3041  -21.2786  -14.1042 H   0  0  0  0  0  0  0  0  0  0  0  0
    8.6517  -18.4199  -14.5104 H   0  0  0  0  0  0  0  0  0  0  0  0
   14.3584  -18.9524  -13.2553 H   0  0  0  0  0  0  0  0  0  0  0  0
   18.7378  -20.2808  -11.7291 H   0  0  0  0  0  0  0  0  0  0  0  0
   20.6761  -20.8843  -10.9453 H   0  0  0  0  0  0  0  0  0  0  0  0
   20.7465  -21.1730   -9.0193 H   0  0  0  0  0  0  0  0  0  0  0  0
  1  2  2  3
  2  3  1  0
  3  4  1  0
  4  5  1  0
  5  6  1  0
  3  7  1  0
  7  8  1  0
  8  9  1  0
  9 10  1  0
  2 11  1  0
 11 12  1  0
 12 13  1  0
 13 14  1  0
 14 15  1  0
 15 16  1  0
 16 17  1  0
 17 18  1  0
 18 19  1  0
 19 20  2  3
 19 21  1  0
 21 22  1  0
 21 23  1  0
 17 24  1  0
 13 25  1  0
 25 26  1  0
 26 11  1  0
 26 13  1  0
 24 15  1  0
  1 27  1  0
  1 28  1  0
  3 29  1  0
  4 30  1  0
  4 31  1  0
  5 32  1  0
  5 33  1  0
  6 34  1  0
  6 35  1  0
  6 36  1  0
  7 37  1  0
  7 38  1  0
  8 39  1  0
  8 40  1  0
  9 41  1  0
  9 42  1  0
 10 43  1  0
 10 44  1  0
 10 45  1  0
 11 46  1  0
 12 47  1  0
 12 48  1  0
 14 49  1  0
 14 50  1  0
 15 51  1  0
 16 52  1  0
 16 53  1  0
 17 54  1  0
 18 55  1  0
 18 56  1  0
 20 57  1  0
 21 58  1  0
 22 59  1  0
 22 60  1  0
 22 61  1  0
 23 62  1  0
 24 63  1  0
 25 64  1  0
 25 65  1  0
 26 66  1  0
M  END
