
     RDKit          2D

 83 93  0  0  0  0  0  0  0  0999 V2000
   23.2526  -16.7959  -18.6937 C   0  0  0  0  0  0  0  0  0  0  0  0
   22.4783  -17.1899  -17.4710 C   0  0  0  0  0  0  0  0  0  0  0  0
   21.7039  -17.5839  -16.2483 C   0  0  0  0  0  0  0  0  0  0  0  0
   20.9296  -17.9780  -15.0255 C   0  0  0  0  0  0  0  0  0  0  0  0
   20.1552  -18.3720  -13.8028 C   0  0  0  0  0  0  0  0  0  0  0  0
   20.1941  -19.7900  -13.3150 C   0  0  0  0  0  0  0  0  0  0  0  0
   19.3808  -18.7661  -12.5801 C   0  0  0  0  0  0  0  0  0  0  0  0
   19.3419  -17.3481  -13.0679 C   0  0  0  0  0  0  0  0  0  0  0  0
   18.4252  -16.9845  -11.9376 O   0  0  0  0  0  0  0  0  0  0  0  0
   18.4641  -18.4025  -11.4498 C   0  0  0  0  0  0  0  0  0  0  0  0
   17.5888  -18.4182  -10.2318 C   0  0  0  0  0  0  0  0  0  0  0  0
   17.3892  -19.6937   -9.4681 C   0  0  0  0  0  0  0  0  0  0  0  0
   17.1895  -20.9692   -8.7044 C   0  0  0  0  0  0  0  0  0  0  0  0
   16.9899  -22.2447   -7.9407 C   0  0  0  0  0  0  0  0  0  0  0  0
   17.6656  -23.5045   -8.3950 C   0  0  0  0  0  0  0  0  0  0  0  0
   18.0883  -24.9432   -8.4306 C   0  0  0  0  0  0  0  0  0  0  0  0
   18.5110  -26.3821   -8.4662 C   0  0  0  0  0  0  0  0  0  0  0  0
   18.9337  -27.8208   -8.5018 C   0  0  0  0  0  0  0  0  0  0  0  0
   18.4024  -28.7136   -7.4199 N   0  0  0  0  0  0  0  0  0  0  0  0
   17.5296  -27.8864   -6.5233 C   0  0  0  0  0  0  0  0  0  0  0  0
   17.6993  -26.6509   -7.2338 C   0  0  0  0  0  0  0  0  0  0  0  0
   16.8265  -25.8238   -6.3372 C   0  0  0  0  0  0  0  0  0  0  0  0
   18.2504  -27.5262   -7.6644 C   0  0  0  0  0  0  0  0  0  0  0  0
   18.5447  -29.5285   -7.3050 C   0  0  0  0  0  0  0  0  0  0  0  0
   18.5409  -23.4887   -9.6130 C   0  0  0  0  0  0  0  0  0  0  0  0
   19.3309  -24.5660  -10.2953 C   0  0  0  0  0  0  0  0  0  0  0  0
   20.0188  -23.9562  -11.4807 C   0  0  0  0  0  0  0  0  0  0  0  0
   19.6540  -22.5022  -11.5310 C   0  0  0  0  0  0  0  0  0  0  0  0
   20.5293  -22.4864  -12.7490 C   0  0  0  0  0  0  0  0  0  0  0  0
   18.7406  -22.2132  -10.3768 C   0  0  0  0  0  0  0  0  0  0  0  0
   18.0649  -20.9534   -9.9224 C   0  0  0  0  0  0  0  0  0  0  0  0
   18.2645  -19.6780  -10.6861 C   0  0  0  0  0  0  0  0  0  0  0  0
   21.6290  -18.9954  -16.7505 C   0  0  0  0  0  0  0  0  0  0  0  0
   22.0790  -18.8664  -17.5026 Br  0  0  0  0  0  0  0  0  0  0  0  0
   21.5541  -20.4068  -17.2528 C   0  0  0  0  0  0  0  0  0  0  0  0
   21.4793  -21.8182  -17.7551 N   0  0  0  0  0  0  0  0  0  0  0  0
   20.3294  -22.2475  -18.6174 S   0  0  0  0  0  0  0  0  0  0  0  0
   20.4219  -22.1201  -20.1091 S   0  0  0  0  0  0  0  0  0  0  0  0
   24.0270  -16.4018  -19.9164 H   0  0  0  0  0  0  0  0  0  0  0  0
   23.3361  -15.3866  -18.1868 H   0  0  0  0  0  0  0  0  0  0  0  0
   23.1693  -18.2051  -19.2007 H   0  0  0  0  0  0  0  0  0  0  0  0
   22.5586  -15.7798  -16.9658 H   0  0  0  0  0  0  0  0  0  0  0  0
   22.4870  -17.9880  -17.8551 H   0  0  0  0  0  0  0  0  0  0  0  0
   21.7788  -16.1726  -15.7460 H   0  0  0  0  0  0  0  0  0  0  0  0
   20.4375  -16.5682  -14.8828 H   0  0  0  0  0  0  0  0  0  0  0  0
   21.3236  -19.4253  -15.0181 H   0  0  0  0  0  0  0  0  0  0  0  0
   21.1036  -20.3943  -14.3434 H   0  0  0  0  0  0  0  0  0  0  0  0
   19.7138  -20.7621  -12.2786 H   0  0  0  0  0  0  0  0  0  0  0  0
   19.5415  -16.0726  -13.8315 H   0  0  0  0  0  0  0  0  0  0  0  0
   16.9131  -17.1584   -9.7775 H   0  0  0  0  0  0  0  0  0  0  0  0
   17.6770  -21.1755   -9.3005 H   0  0  0  0  0  0  0  0  0  0  0  0
   16.4961  -23.1976   -6.8929 H   0  0  0  0  0  0  0  0  0  0  0  0
   16.1427  -21.3159   -7.1225 H   0  0  0  0  0  0  0  0  0  0  0  0
   16.8745  -23.8491   -7.1680 H   0  0  0  0  0  0  0  0  0  0  0  0
   17.2281  -25.0356   -7.2053 H   0  0  0  0  0  0  0  0  0  0  0  0
   19.0062  -25.3807   -9.5334 H   0  0  0  0  0  0  0  0  0  0  0  0
   19.3227  -26.1131   -9.6987 H   0  0  0  0  0  0  0  0  0  0  0  0
   19.8065  -28.6480   -9.3984 H   0  0  0  0  0  0  0  0  0  0  0  0
   18.9846  -30.0650   -7.7110 H   0  0  0  0  0  0  0  0  0  0  0  0
   17.1357  -28.9670   -5.5604 H   0  0  0  0  0  0  0  0  0  0  0  0
   16.6147  -27.4975   -5.3999 H   0  0  0  0  0  0  0  0  0  0  0  0
   15.9536  -24.9966   -5.4405 H   0  0  0  0  0  0  0  0  0  0  0  0
   16.4547  -26.9194   -5.3825 H   0  0  0  0  0  0  0  0  0  0  0  0
   16.8747  -24.4540   -6.9466 H   0  0  0  0  0  0  0  0  0  0  0  0
   17.5158  -28.8565   -6.1316 H   0  0  0  0  0  0  0  0  0  0  0  0
   18.8653  -30.9893   -7.1901 H   0  0  0  0  0  0  0  0  0  0  0  0
   17.7907  -29.9708   -6.0861 H   0  0  0  0  0  0  0  0  0  0  0  0
   19.3563  -29.2596   -8.5375 H   0  0  0  0  0  0  0  0  0  0  0  0
   18.6597  -24.9330   -9.2257 H   0  0  0  0  0  0  0  0  0  0  0  0
   18.9789  -25.6974   -9.3756 H   0  0  0  0  0  0  0  0  0  0  0  0
   20.0066  -25.8257  -10.7496 H   0  0  0  0  0  0  0  0  0  0  0  0
   20.5507  -25.3435  -11.6871 H   0  0  0  0  0  0  0  0  0  0  0  0
   20.8669  -23.8131  -12.7096 H   0  0  0  0  0  0  0  0  0  0  0  0
   19.4721  -21.0448  -11.8360 H   0  0  0  0  0  0  0  0  0  0  0  0
   21.4047  -22.4707  -13.9670 H   0  0  0  0  0  0  0  0  0  0  0  0
   20.9098  -23.9371  -12.7195 H   0  0  0  0  0  0  0  0  0  0  0  0
   20.1488  -21.0358  -12.7785 H   0  0  0  0  0  0  0  0  0  0  0  0
   18.9245  -20.9254  -11.1234 H   0  0  0  0  0  0  0  0  0  0  0  0
   20.8488  -19.5579  -15.5995 H   0  0  0  0  0  0  0  0  0  0  0  0
   22.7527  -20.1616  -18.1208 H   0  0  0  0  0  0  0  0  0  0  0  0
   20.3556  -20.6521  -16.3849 H   0  0  0  0  0  0  0  0  0  0  0  0
   22.5543  -22.8003  -17.3952 H   0  0  0  0  0  0  0  0  0  0  0  0
   21.6644  -21.5635  -20.7386 H   0  0  0  0  0  0  0  0  0  0  0  0
  1  2  1  0
  2  3  1  0
  3  4  1  0
  4  5  1  0
  5  6  1  0
  6  7  1  0
  7  8  1  0
  8  9  1  0
  9 10  1  0
 10 11  1  0
 11 12  1  0
 12 13  1  0
 13 14  1  0
 14 15  1  0
 15 16  1  0
 16 17  1  0
 17 18  1  0
 18 19  1  0
 19 20  1  0
 20 21  1  0
 21 22  1  0
 21 23  1  0
 23 24  1  0
 15 25  1  0
 25 26  1  0
 26 27  1  0
 27 28  1  0
 28 29  1  0
 28 30  1  0
 30 31  1  0
 31 32  1  0
  3 33  1  0
 33 34  1  0
 33 35  1  0
 35 36  1  0
 36 37  1  0
 37 38  1  0
  7  5  1  0
 32 10  1  0
  8  5  1  0
 32 11  1  0
 10  7  1  0
 31 12  1  0
 32 12  1  0
 31 13  1  0
 21 17  1  0
 30 25  1  0
 23 18  1  0
  1 39  1  0
  1 40  1  0
  1 41  1  0
  2 42  1  0
  2 43  1  0
  3 44  1  0
  4 45  1  0
  4 46  1  0
  6 47  1  0
  6 48  1  0
  8 49  1  0
 11 50  1  0
 13 51  1  0
 14 52  1  0
 14 53  1  0
 15 54  1  0
 16 55  1  0
 16 56  1  0
 17 57  1  0
 18 58  1  0
 19 59  1  0
 20 60  1  0
 20 61  1  0
 22 62  1  0
 22 63  1  0
 22 64  1  0
 23 65  1  0
 24 66  1  0
 24 67  1  0
 24 68  1  0
 25 69  1  0
 26 70  1  0
 26 71  1  0
 27 72  1  0
 27 73  1  0
 28 74  1  0
 29 75  1  0
 29 76  1  0
 29 77  1  0
 30 78  1  0
 33 79  1  0
 35 80  1  0
 35 81  1  0
 36 82  1  0
 38 83  1  0
M  END
