
     RDKit          2D

 15 14  0  0  0  0  0  0  0  0999 V2000
    1.4938   22.4335    8.2422 C   0  0  0  0  0  0  0  0  0  0  0  0
    1.9067   21.0689    8.7086 C   0  0  0  0  0  0  0  0  0  0  0  0
    2.6954   21.6887    9.8239 F   0  0  0  0  0  0  0  0  0  0  0  0
    2.3195   19.7044    9.1749 C   0  0  0  0  0  0  0  0  0  0  0  0
    2.7323   18.3398    9.6413 F   0  0  0  0  0  0  0  0  0  0  0  0
    1.1180   20.4492    7.5933 C   0  0  0  0  0  0  0  0  0  0  0  0
    1.1164   19.6216    7.9090 F   0  0  0  0  0  0  0  0  0  0  0  0
    0.3293   19.8294    6.4780 O   0  0  0  0  0  0  0  0  0  0  0  0
   -0.2957   20.6992    5.4279 F   0  0  0  0  0  0  0  0  0  0  0  0
    1.0810   23.7981    7.7759 H   0  0  0  0  0  0  0  0  0  0  0  0
    2.4977   23.0537    9.1683 H   0  0  0  0  0  0  0  0  0  0  0  0
    0.8758   22.1683    7.6659 H   0  0  0  0  0  0  0  0  0  0  0  0
    3.7538   20.1432    9.1894 H   0  0  0  0  0  0  0  0  0  0  0  0
    1.5086   19.3489    9.2000 H   0  0  0  0  0  0  0  0  0  0  0  0
    1.0059   21.1875    7.1170 H   0  0  0  0  0  0  0  0  0  0  0  0
  1  2  1  0
  2  3  1  0
  2  4  1  0
  4  5  1  0
  2  6  1  0
  6  7  1  0
  6  8  1  0
  8  9  1  0
  1 10  1  0
  1 11  1  0
  1 12  1  0
  4 13  1  0
  4 14  1  0
  6 15  1  0
M  END
