
     RDKit          2D

 17 19  0  0  0  0  0  0  0  0999 V2000
   13.4147  -22.7921   -8.1293 C   0  0  0  0  0  0  0  0  0  0  0  0
   13.2202  -24.2607   -8.3640 O   0  0  0  0  0  0  0  0  0  0  0  0
   14.4936  -23.7618   -7.7481 C   0  0  0  0  0  0  0  0  0  0  0  0
   15.5157  -22.8116   -7.1983 C   0  0  0  0  0  0  0  0  0  0  0  0
   14.5995  -21.6594   -7.4866 Mg  0  0  0  0  0  2  0  0  0  0  0  0
   15.6216  -20.7090   -6.9368 S   0  0  0  0  0  0  0  0  0  0  0  0
   16.5378  -21.8612   -6.6485 C   0  0  0  0  0  0  0  0  0  0  0  0
   17.6873  -22.7281   -6.2278 C   0  0  0  0  0  0  0  0  0  0  0  0
   17.7622  -21.2414   -6.0429 C   0  0  0  0  0  0  0  0  0  0  0  0
   12.1109  -22.2692   -8.6554 H   0  0  0  0  0  0  0  0  0  0  0  0
   13.7500  -21.3598   -7.8357 H   0  0  0  0  0  0  0  0  0  0  0  0
   15.2177  -25.0616   -7.5579 H   0  0  0  0  0  0  0  0  0  0  0  0
   16.3006  -24.0709   -6.9792 H   0  0  0  0  0  0  0  0  0  0  0  0
   17.3061  -24.1446   -6.5413 H   0  0  0  0  0  0  0  0  0  0  0  0
   19.0241  -23.1268   -5.6764 H   0  0  0  0  0  0  0  0  0  0  0  0
   19.1249  -21.1238   -5.4272 H   0  0  0  0  0  0  0  0  0  0  0  0
   17.3638  -19.7957   -6.0717 H   0  0  0  0  0  0  0  0  0  0  0  0
  1  2  1  0
  2  3  1  0
  3  4  1  0
  4  5  1  0
  5  6  1  0
  6  7  1  0
  7  8  1  0
  8  9  1  0
  3  1  1  0
  7  4  1  0
  9  7  1  0
  1 10  1  0
  1 11  1  0
  3 12  1  0
  4 13  1  0
  8 14  1  0
  8 15  1  0
  9 16  1  0
  9 17  1  0
M  END
