
     RDKit          2D

120127  0  0  0  0  0  0  0  0999 V2000
   -3.2959   31.5263   12.3838 C   0  0  0  0  0  0  0  0  0  0  0  0
   -2.3986   30.9075   11.3533 C   0  0  0  0  0  0  0  0  0  0  0  0
   -1.5013   30.2887   10.3229 C   0  0  0  0  0  0  0  0  0  0  0  0
   -0.6039   29.6698    9.2924 B   0  0  0  0  0  0  0  0  0  0  0  0
    0.1631   30.4065    8.2346 C   0  0  0  0  0  0  0  0  0  0  0  0
    0.1881   29.0634    8.3912 C   0  0  0  0  0  0  0  0  0  0  0  0
    0.1512   27.7316    8.6234 C   0  0  0  0  0  0  0  0  0  0  0  0
   -0.5917   26.9404    9.6588 C   0  0  0  0  0  0  0  0  0  0  0  0
   -0.5984   25.4560    9.8745 C   0  0  0  0  0  0  0  0  0  0  0  0
    0.1362   24.3963    9.1082 C   0  0  0  0  0  0  0  0  0  0  0  0
   -0.6066   23.6050   10.1436 C   0  0  0  0  0  0  0  0  0  0  0  0
   -1.3495   22.8137   11.1789 C   0  0  0  0  0  0  0  0  0  0  0  0
   -2.0925   22.0225   12.2143 C   0  0  0  0  0  0  0  0  0  0  0  0
   -2.8354   21.2312   13.2497 C   0  0  0  0  0  0  0  0  0  0  0  0
   -3.5783   20.4400   14.2851 C   0  0  0  0  0  0  0  0  0  0  0  0
   -2.2554   19.9632   12.6968 C   0  0  0  0  0  0  0  0  0  0  0  0
    1.0590   24.5592    7.9369 C   0  0  0  0  0  0  0  0  0  0  0  0
    1.0523   23.0748    8.1527 C   0  0  0  0  0  0  0  0  0  0  0  0
    1.0457   21.5904    8.3684 C   0  0  0  0  0  0  0  0  0  0  0  0
    1.0391   20.1060    8.5842 C   0  0  0  0  0  0  0  0  0  0  0  0
    2.3927   21.4896    7.7162 C   0  0  0  0  0  0  0  0  0  0  0  0
    3.7397   21.3888    7.0640 C   0  0  0  0  0  0  0  0  0  0  0  0
    5.0868   21.2880    6.4118 C   0  0  0  0  0  0  0  0  0  0  0  0
    6.4338   21.1871    5.7596 C   0  0  0  0  0  0  0  0  0  0  0  0
    7.7808   21.0863    5.1074 C   0  0  0  0  0  0  0  0  0  0  0  0
    5.3411   22.7352    6.7133 C   0  0  0  0  0  0  0  0  0  0  0  0
    5.5954   24.1824    7.0148 C   0  0  0  0  0  0  0  0  0  0  0  0
    5.8496   25.6296    7.3163 C   0  0  0  0  0  0  0  0  0  0  0  0
    6.7752   24.1680    6.0887 C   0  0  0  0  0  0  0  0  0  0  0  0
    6.7590   25.5941    5.6239 C   0  0  0  0  0  0  0  0  0  0  0  0
    7.3454   26.6960    4.7922 C   0  0  0  0  0  0  0  0  0  0  0  0
    8.3936   25.7527    4.2811 C   0  0  0  0  0  0  0  0  0  0  0  0
    7.2208   23.5486    5.9445 C   0  0  0  0  0  0  0  0  0  0  0  0
    7.5473   22.1022    6.1712 C   0  0  0  0  0  0  0  0  0  0  0  0
    6.1726   24.4921    6.4556 C   0  0  0  0  0  0  0  0  0  0  0  0
    7.8072   24.6506    5.1128 C   0  0  0  0  0  0  0  0  0  0  0  0
    1.4750   25.8220    7.2425 C   0  0  0  0  0  0  0  0  0  0  0  0
    1.0709   27.2340    7.5481 C   0  0  0  0  0  0  0  0  0  0  0  0
    1.8139   28.0252    6.5127 C   0  0  0  0  0  0  0  0  0  0  0  0
    1.1760   29.2301    7.1383 C   0  0  0  0  0  0  0  0  0  0  0  0
    2.6355   28.6187    5.4070 C   0  0  0  0  0  0  0  0  0  0  0  0
    1.8205   29.5096    6.2969 C   0  0  0  0  0  0  0  0  0  0  0  0
    2.3583   30.6393    5.4696 C   0  0  0  0  0  0  0  0  0  0  0  0
    2.8961   31.7690    4.6423 C   0  0  0  0  0  0  0  0  0  0  0  0
    1.0858   30.5693    7.0633 C   0  0  0  0  0  0  0  0  0  0  0  0
   -4.1933   32.1452   13.4143 H   0  0  0  0  0  0  0  0  0  0  0  0
   -2.6085   30.7356   13.4572 H   0  0  0  0  0  0  0  0  0  0  0  0
   -3.9832   32.3171   11.3104 H   0  0  0  0  0  0  0  0  0  0  0  0
   -2.7070   29.5460   11.9023 H   0  0  0  0  0  0  0  0  0  0  0  0
   -2.0901   32.2689   10.8043 H   0  0  0  0  0  0  0  0  0  0  0  0
   -1.7936   28.9290   10.8849 H   0  0  0  0  0  0  0  0  0  0  0  0
   -1.2090   31.6483    9.7609 H   0  0  0  0  0  0  0  0  0  0  0  0
   -0.4208   31.6740    8.7843 H   0  0  0  0  0  0  0  0  0  0  0  0
   -0.2643   29.3610    8.9128 H   0  0  0  0  0  0  0  0  0  0  0  0
   -0.9957   28.3523    9.9643 H   0  0  0  0  0  0  0  0  0  0  0  0
    0.4606   29.0825    8.0494 H   0  0  0  0  0  0  0  0  0  0  0  0
   -1.4402   27.7391   10.6033 H   0  0  0  0  0  0  0  0  0  0  0  0
   -1.5181   25.9537   10.9499 H   0  0  0  0  0  0  0  0  0  0  0  0
   -1.1147   24.2999   10.6788 H   0  0  0  0  0  0  0  0  0  0  0  0
    0.4332   22.9353    8.9429 H   0  0  0  0  0  0  0  0  0  0  0  0
   -0.1178   22.2503    9.7240 H   0  0  0  0  0  0  0  0  0  0  0  0
   -1.2766   24.7667   10.8156 H   0  0  0  0  0  0  0  0  0  0  0  0
   -0.7681   21.5459   10.6272 H   0  0  0  0  0  0  0  0  0  0  0  0
   -1.9310   24.0817   11.7307 H   0  0  0  0  0  0  0  0  0  0  0  0
   -2.6755   23.2902   12.7648 H   0  0  0  0  0  0  0  0  0  0  0  0
   -1.4233   20.8607   11.5418 H   0  0  0  0  0  0  0  0  0  0  0  0
   -3.4154   22.4993   13.8026 H   0  0  0  0  0  0  0  0  0  0  0  0
   -4.3213   19.6489   15.3205 H   0  0  0  0  0  0  0  0  0  0  0  0
   -3.0025   19.1715   13.7289 H   0  0  0  0  0  0  0  0  0  0  0  0
   -4.2404   21.6026   14.9632 H   0  0  0  0  0  0  0  0  0  0  0  0
   -1.6754   18.6951   12.1440 H   0  0  0  0  0  0  0  0  0  0  0  0
   -2.9280   19.0227   13.6523 H   0  0  0  0  0  0  0  0  0  0  0  0
   -1.4414   20.5946   11.6065 H   0  0  0  0  0  0  0  0  0  0  0  0
    1.9454   23.8934    6.9265 H   0  0  0  0  0  0  0  0  0  0  0  0
    2.3261   23.1391    7.3630 H   0  0  0  0  0  0  0  0  0  0  0  0
   -0.2214   23.0105    8.9423 H   0  0  0  0  0  0  0  0  0  0  0  0
   -0.2921   21.5095    9.0421 H   0  0  0  0  0  0  0  0  0  0  0  0
    1.0324   18.6217    8.7999 H   0  0  0  0  0  0  0  0  0  0  0  0
    2.0698   19.7661    7.5486 H   0  0  0  0  0  0  0  0  0  0  0  0
   -0.0002   20.2662    9.6539 H   0  0  0  0  0  0  0  0  0  0  0  0
    2.3504   20.0166    7.4358 H   0  0  0  0  0  0  0  0  0  0  0  0
    2.7635   22.9380    7.8376 H   0  0  0  0  0  0  0  0  0  0  0  0
    3.9008   20.0015    7.6112 H   0  0  0  0  0  0  0  0  0  0  0  0
    3.4157   22.7780    6.6004 H   0  0  0  0  0  0  0  0  0  0  0  0
    4.8325   19.8407    6.1103 H   0  0  0  0  0  0  0  0  0  0  0  0
    6.1027   19.8015    5.2901 H   0  0  0  0  0  0  0  0  0  0  0  0
    6.7648   22.5728    6.2292 H   0  0  0  0  0  0  0  0  0  0  0  0
    9.1278   20.9855    4.4552 H   0  0  0  0  0  0  0  0  0  0  0  0
    7.7524   22.4201    4.4218 H   0  0  0  0  0  0  0  0  0  0  0  0
    7.9750   19.7301    5.7181 H   0  0  0  0  0  0  0  0  0  0  0  0
    6.6220   22.6722    5.9353 H   0  0  0  0  0  0  0  0  0  0  0  0
    4.1007   22.9741    7.5223 H   0  0  0  0  0  0  0  0  0  0  0  0
    4.4155   24.1968    7.9409 H   0  0  0  0  0  0  0  0  0  0  0  0
    6.1039   27.0768    7.6178 H   0  0  0  0  0  0  0  0  0  0  0  0
    4.9493   25.5386    8.5126 H   0  0  0  0  0  0  0  0  0  0  0  0
    6.7848   26.0681    6.2284 H   0  0  0  0  0  0  0  0  0  0  0  0
    6.9169   22.7219    6.4611 H   0  0  0  0  0  0  0  0  0  0  0  0
    7.9318   27.7981    3.9605 H   0  0  0  0  0  0  0  0  0  0  0  0
    6.2972   27.6395    5.3034 H   0  0  0  0  0  0  0  0  0  0  0  0
    9.5494   25.8647    3.3316 H   0  0  0  0  0  0  0  0  0  0  0  0
    7.8738   20.6558    6.3979 H   0  0  0  0  0  0  0  0  0  0  0  0
    8.6535   22.3893    5.1997 H   0  0  0  0  0  0  0  0  0  0  0  0
    6.3926   21.9906    7.1222 H   0  0  0  0  0  0  0  0  0  0  0  0
    5.2975   25.6742    6.7503 H   0  0  0  0  0  0  0  0  0  0  0  0
    5.8572   23.1945    7.1390 H   0  0  0  0  0  0  0  0  0  0  0  0
    2.2766   24.8986    6.3738 H   0  0  0  0  0  0  0  0  0  0  0  0
    2.2179   26.6132    6.2072 H   0  0  0  0  0  0  0  0  0  0  0  0
    0.6550   25.9710    8.2424 H   0  0  0  0  0  0  0  0  0  0  0  0
    0.3883   30.1854    7.9850 H   0  0  0  0  0  0  0  0  0  0  0  0
    1.6986   30.3792    6.3280 H   0  0  0  0  0  0  0  0  0  0  0  0
    0.4059   28.4998    8.1982 H   0  0  0  0  0  0  0  0  0  0  0  0
    3.2378   27.3712    4.8316 H   0  0  0  0  0  0  0  0  0  0  0  0
    3.3312   29.5054    4.4171 H   0  0  0  0  0  0  0  0  0  0  0  0
    3.1843   29.8051    4.5359 H   0  0  0  0  0  0  0  0  0  0  0  0
    1.6634   31.7489    6.2016 H   0  0  0  0  0  0  0  0  0  0  0  0
    3.4339   32.8987    3.8149 H   0  0  0  0  0  0  0  0  0  0  0  0
    3.6633   30.7898    3.8040 H   0  0  0  0  0  0  0  0  0  0  0  0
    2.1289   32.7482    5.4805 H   0  0  0  0  0  0  0  0  0  0  0  0
    1.7520   31.5091    6.1027 H   0  0  0  0  0  0  0  0  0  0  0  0
    0.6818   31.9812    7.3688 H   0  0  0  0  0  0  0  0  0  0  0  0
  1  2  1  0
  2  3  1  0
  3  4  1  0
  4  5  1  0
  5  6  1  0
  6  7  1  0
  7  8  1  0
  8  9  1  0
  9 10  1  0
 10 11  1  0
 11 12  1  0
 12 13  1  0
 13 14  1  0
 14 15  1  0
 14 16  1  0
 10 17  1  0
 17 18  1  0
 18 19  1  0
 19 20  1  0
 19 21  1  0
 21 22  1  0
 22 23  1  0
 23 24  1  0
 24 25  1  0
 23 26  1  0
 26 27  1  0
 27 28  1  0
 27 29  1  0
 29 30  1  0
 30 31  1  0
 31 32  1  0
 32 33  1  0
 33 34  1  0
 33 35  1  0
 33 36  1  0
 17 37  1  0
 37 38  1  0
 38 39  1  0
 39 40  1  0
 39 41  1  0
 41 42  1  0
 42 43  1  0
 43 44  1  0
 42 45  1  0
  8  4  1  0
 36 29  1  0
 42 39  1  0
 45  5  1  0
 38  7  1  0
 35 30  1  0
 36 30  1  0
 36 32  1  0
  1 46  1  0
  1 47  1  0
  1 48  1  0
  2 49  1  0
  2 50  1  0
  3 51  1  0
  3 52  1  0
  5 53  1  0
  6 54  1  0
  6 55  1  0
  7 56  1  0
  8 57  1  0
  9 58  1  0
  9 59  1  0
 10 60  1  0
 11 61  1  0
 11 62  1  0
 12 63  1  0
 12 64  1  0
 13 65  1  0
 13 66  1  0
 14 67  1  0
 15 68  1  0
 15 69  1  0
 15 70  1  0
 16 71  1  0
 16 72  1  0
 16 73  1  0
 17 74  1  0
 18 75  1  0
 18 76  1  0
 19 77  1  0
 20 78  1  0
 20 79  1  0
 20 80  1  0
 21 81  1  0
 21 82  1  0
 22 83  1  0
 22 84  1  0
 23 85  1  0
 24 86  1  0
 24 87  1  0
 25 88  1  0
 25 89  1  0
 25 90  1  0
 26 91  1  0
 26 92  1  0
 27 93  1  0
 28 94  1  0
 28 95  1  0
 28 96  1  0
 29 97  1  0
 31 98  1  0
 31 99  1  0
 32100  1  0
 34101  1  0
 34102  1  0
 34103  1  0
 35104  1  0
 35105  1  0
 37106  1  0
 37107  1  0
 38108  1  0
 40109  1  0
 40110  1  0
 40111  1  0
 41112  1  0
 41113  1  0
 43114  1  0
 43115  1  0
 44116  1  0
 44117  1  0
 44118  1  0
 45119  1  0
 45120  1  0
M  END
