
     RDKit          2D

 39 41  0  0  0  0  0  0  0  0999 V2000
   21.2742  -20.4856  -13.1357 C   0  0  0  0  0  0  0  0  0  0  0  0
   19.8472  -20.9342  -13.0241 C   0  0  0  0  0  0  0  0  0  0  0  0
   18.4202  -21.3828  -12.9125 N   0  0  0  0  0  0  0  0  0  0  0  0
   17.8271  -21.6684  -11.5646 C   0  0  0  0  0  0  0  0  0  0  0  0
   16.4386  -22.0657  -11.9700 C   0  0  0  0  0  0  0  0  0  0  0  0
   16.8233  -22.0576  -10.5202 C   0  0  0  0  0  0  0  0  0  0  0  0
   17.6571  -21.8947   -9.2840 C   0  0  0  0  0  0  0  0  0  0  0  0
   18.4910  -21.7317   -8.0478 C   0  0  0  0  0  0  0  0  0  0  0  0
   16.4905  -22.3179   -8.4414 C   0  0  0  0  0  0  0  0  0  0  0  0
   15.3241  -22.7411   -7.5987 C   0  0  0  0  0  0  0  0  0  0  0  0
   14.0645  -23.1811   -6.9130 F   0  0  0  0  0  0  0  0  0  0  0  0
   16.1578  -22.5782   -6.3626 S   0  0  0  0  0  4  0  0  0  0  0  0
   15.1536  -22.9661   -5.3179 C   0  0  0  0  0  0  0  0  0  0  0  0
   17.4517  -22.1336   -6.9778 C   0  0  0  0  0  0  0  0  0  0  0  0
   18.6342  -21.8359   -6.1043 O   0  0  0  0  0  0  0  0  0  0  0  0
   17.3405  -22.2805   -5.4892 C   0  0  0  0  0  0  0  0  0  0  0  0
   17.2292  -22.4274   -4.0004 O   0  0  0  0  0  0  0  0  0  0  0  0
   22.7012  -20.0370  -13.2473 H   0  0  0  0  0  0  0  0  0  0  0  0
   21.4136  -20.5580  -11.6440 H   0  0  0  0  0  0  0  0  0  0  0  0
   21.1348  -20.4132  -14.6274 H   0  0  0  0  0  0  0  0  0  0  0  0
   19.9871  -21.0082  -11.5325 H   0  0  0  0  0  0  0  0  0  0  0  0
   19.7072  -20.8602  -14.5157 H   0  0  0  0  0  0  0  0  0  0  0  0
   17.5864  -21.5457  -14.1486 H   0  0  0  0  0  0  0  0  0  0  0  0
   18.9723  -21.3645  -10.9177 H   0  0  0  0  0  0  0  0  0  0  0  0
   15.0116  -22.5144  -11.8584 H   0  0  0  0  0  0  0  0  0  0  0  0
   16.5496  -21.9181  -13.4586 H   0  0  0  0  0  0  0  0  0  0  0  0
   15.4641  -22.5107  -10.0759 H   0  0  0  0  0  0  0  0  0  0  0  0
   18.7907  -21.4987   -9.9012 H   0  0  0  0  0  0  0  0  0  0  0  0
   19.3248  -21.5688   -6.8116 H   0  0  0  0  0  0  0  0  0  0  0  0
   19.6026  -21.1552   -8.8737 H   0  0  0  0  0  0  0  0  0  0  0  0
   17.8506  -22.0463   -7.6923 H   0  0  0  0  0  0  0  0  0  0  0  0
   17.4629  -22.1127   -7.3178 H   0  0  0  0  0  0  0  0  0  0  0  0
   15.5182  -22.5230   -9.5650 H   0  0  0  0  0  0  0  0  0  0  0  0
   14.4902  -22.9041   -8.8349 H   0  0  0  0  0  0  0  0  0  0  0  0
   14.1495  -23.3541   -4.2734 H   0  0  0  0  0  0  0  0  0  0  0  0
   14.0158  -23.2474   -6.2539 H   0  0  0  0  0  0  0  0  0  0  0  0
   16.0469  -22.7794   -4.1274 H   0  0  0  0  0  0  0  0  0  0  0  0
   17.5628  -21.9868   -8.4664 H   0  0  0  0  0  0  0  0  0  0  0  0
   16.0205  -22.8578   -3.2236 H   0  0  0  0  0  0  0  0  0  0  0  0
  1  2  1  0
  2  3  1  0
  3  4  1  0
  4  5  1  0
  5  6  1  0
  6  7  1  0
  7  8  1  0
  7  9  1  0
  9 10  1  0
 10 11  1  0
 10 12  1  0
 12 13  1  0
 12 14  1  0
 14 15  1  0
 15 16  1  0
 16 17  1  0
  6  4  1  0
 16 12  1  0
 16 14  1  0
  1 18  1  0
  1 19  1  0
  1 20  1  0
  2 21  1  0
  2 22  1  0
  3 23  1  0
  4 24  1  0
  5 25  1  0
  5 26  1  0
  6 27  1  0
  7 28  1  0
  8 29  1  0
  8 30  1  0
  8 31  1  0
  9 32  1  0
  9 33  1  0
 10 34  1  0
 13 35  1  0
 13 36  1  0
 13 37  1  0
 14 38  1  0
 17 39  1  0
M  END
