
     RDKit          2D

 21 21  0  0  0  0  0  0  0  0999 V2000
   -5.1520   22.3367    3.0089 C   0  0  0  0  0  0  0  0  0  0  0  0
   -4.8754   23.6830    3.6098 N   0  0  0  0  0  0  0  0  0  0  0  0
   -3.5896   24.3917    3.3024 C   0  0  0  0  0  0  0  0  0  0  0  0
   -3.3130   25.7379    3.9033 C   0  0  0  0  0  0  0  0  0  0  0  0
   -4.3223   26.3756    4.8115 C   0  0  0  0  0  0  0  0  0  0  0  0
   -5.6080   25.6669    5.1188 C   0  0  0  0  0  0  0  0  0  0  0  0
   -5.8014   26.9180    5.9235 C   0  0  0  0  0  0  0  0  0  0  0  0
   -7.0583   27.1114    6.7189 O   0  0  0  0  0  0  0  0  0  0  0  0
   -4.7378   27.9757    5.9326 O   0  0  0  0  0  0  0  0  0  0  0  0
   -5.8846   24.3206    4.5180 C   0  0  0  0  0  0  0  0  0  0  0  0
   -5.4286   20.9904    2.4081 H   0  0  0  0  0  0  0  0  0  0  0  0
   -6.6473   22.4521    2.9822 H   0  0  0  0  0  0  0  0  0  0  0  0
   -3.7241   21.8931    2.8892 H   0  0  0  0  0  0  0  0  0  0  0  0
   -3.2344   23.2107    2.4484 H   0  0  0  0  0  0  0  0  0  0  0  0
   -2.2367   24.6658    2.7156 H   0  0  0  0  0  0  0  0  0  0  0  0
   -2.0272   26.4466    3.5959 H   0  0  0  0  0  0  0  0  0  0  0  0
   -3.7332   27.6918    5.2246 H   0  0  0  0  0  0  0  0  0  0  0  0
   -6.9610   25.3927    5.7056 H   0  0  0  0  0  0  0  0  0  0  0  0
   -4.9311   29.2267    6.7372 H   0  0  0  0  0  0  0  0  0  0  0  0
   -7.1415   24.5141    5.3134 H   0  0  0  0  0  0  0  0  0  0  0  0
   -6.7327   23.1025    4.3013 H   0  0  0  0  0  0  0  0  0  0  0  0
  1  2  1  0
  2  3  1  0
  3  4  1  0
  4  5  2  0
  5  6  1  0
  6  7  1  0
  7  8  2  0
  7  9  1  0
  6 10  1  0
 10  2  1  0
  1 11  1  0
  1 12  1  0
  1 13  1  0
  3 14  1  0
  3 15  1  0
  4 16  1  0
  5 17  1  0
  6 18  1  0
  9 19  1  0
 10 20  1  0
 10 21  1  0
M  END
