
     RDKit          2D

 43 46  0  0  0  0  0  0  0  0999 V2000
   20.6056  -21.2930  -16.2295 N   0  0  0  0  0  0  0  0  0  0  0  0
   21.4606  -21.7367  -15.0797 N   0  0  0  0  0  0  0  0  0  0  0  0
   20.8208  -22.2359  -13.8181 C   0  0  0  0  0  0  0  0  0  0  0  0
   20.4915  -21.2758  -12.7136 N   0  0  0  0  0  0  0  0  0  0  0  0
   19.8517  -21.7749  -11.4520 C   0  0  0  0  0  0  0  0  0  0  0  0
   19.2119  -22.2740  -10.1904 C   0  0  0  0  0  0  0  0  0  0  0  0
   18.5721  -22.7732   -8.9289 C   0  0  0  0  0  0  0  0  0  0  0  0
   17.9323  -23.2722   -7.6673 C   0  0  0  0  0  0  0  0  0  0  0  0
   18.0327  -21.8101   -7.3477 C   0  0  0  0  0  0  0  0  0  0  0  0
   17.5356  -21.2947   -6.0296 C   0  0  0  0  0  0  0  0  0  0  0  0
   16.9381  -22.2414   -5.0312 C   0  0  0  0  0  0  0  0  0  0  0  0
   16.8377  -23.7035   -5.3509 C   0  0  0  0  0  0  0  0  0  0  0  0
   16.7373  -25.1656   -5.6706 C   0  0  0  0  0  0  0  0  0  0  0  0
   17.3348  -24.2189   -6.6689 C   0  0  0  0  0  0  0  0  0  0  0  0
   19.2015  -20.8775   -9.6433 C   0  0  0  0  0  0  0  0  0  0  0  0
   19.8292  -20.1434  -10.7908 C   0  0  0  0  0  0  0  0  0  0  0  0
   20.0380  -18.6602  -10.7082 C   0  0  0  0  0  0  0  0  0  0  0  0
   20.6694  -18.4111  -12.0458 Br  0  0  0  0  0  0  0  0  0  0  0  0
   19.4103  -19.3944   -9.5605 C   0  0  0  0  0  0  0  0  0  0  0  0
   20.1875  -22.2807  -17.2782 H   0  0  0  0  0  0  0  0  0  0  0  0
   20.1688  -19.8616  -16.3307 H   0  0  0  0  0  0  0  0  0  0  0  0
   22.9554  -21.6814  -15.1914 H   0  0  0  0  0  0  0  0  0  0  0  0
   20.5103  -23.6949  -13.6611 H   0  0  0  0  0  0  0  0  0  0  0  0
   20.0210  -20.8222  -11.2724 H   0  0  0  0  0  0  0  0  0  0  0  0
   19.7452  -23.1470  -12.0488 H   0  0  0  0  0  0  0  0  0  0  0  0
   19.2223  -23.6707  -10.7377 H   0  0  0  0  0  0  0  0  0  0  0  0
   18.5663  -22.0309   -8.6382 H   0  0  0  0  0  0  0  0  0  0  0  0
   18.5830  -24.1698   -9.4759 H   0  0  0  0  0  0  0  0  0  0  0  0
   18.0541  -24.5610   -8.4252 H   0  0  0  0  0  0  0  0  0  0  0  0
   18.3432  -20.3511   -7.5047 H   0  0  0  0  0  0  0  0  0  0  0  0
   18.3714  -21.6239   -8.0449 H   0  0  0  0  0  0  0  0  0  0  0  0
   17.2063  -20.3348   -4.9251 H   0  0  0  0  0  0  0  0  0  0  0  0
   18.0187  -20.0147   -6.6444 H   0  0  0  0  0  0  0  0  0  0  0  0
   16.2983  -22.7405   -3.7696 H   0  0  0  0  0  0  0  0  0  0  0  0
   16.8163  -20.9527   -4.2734 H   0  0  0  0  0  0  0  0  0  0  0  0
   16.2057  -23.9525   -4.0135 H   0  0  0  0  0  0  0  0  0  0  0  0
   16.0975  -25.6647   -4.4090 H   0  0  0  0  0  0  0  0  0  0  0  0
   16.8591  -26.4544   -6.4284 H   0  0  0  0  0  0  0  0  0  0  0  0
   17.5638  -25.3607   -7.6144 H   0  0  0  0  0  0  0  0  0  0  0  0
   18.6132  -20.7654   -8.2679 H   0  0  0  0  0  0  0  0  0  0  0  0
   20.3525  -20.5603  -12.1334 H   0  0  0  0  0  0  0  0  0  0  0  0
   20.0276  -17.2636  -10.1609 H   0  0  0  0  0  0  0  0  0  0  0  0
   18.9914  -18.6454   -8.3303 H   0  0  0  0  0  0  0  0  0  0  0  0
  1  2  1  0
  2  3  1  0
  3  4  2  3
  4  5  1  0
  5  6  1  0
  6  7  1  0
  7  8  1  0
  8  9  1  0
  9 10  1  0
 10 11  1  0
 11 12  1  0
 12 13  1  0
 13 14  1  0
  6 15  1  0
 15 16  1  0
 16 17  1  0
 17 18  1  0
 17 19  1  0
 14  8  1  0
 19 15  1  0
 14 12  1  0
 19 16  1  0
  1 20  1  0
  1 21  1  0
  2 22  1  0
  3 23  1  0
  5 24  1  0
  5 25  1  0
  6 26  1  1
  7 27  1  0
  7 28  1  0
  8 29  1  6
  9 30  1  0
  9 31  1  0
 10 32  1  0
 10 33  1  0
 11 34  1  0
 11 35  1  0
 12 36  1  6
 13 37  1  0
 13 38  1  0
 14 39  1  1
 15 40  1  6
 16 41  1  6
 17 42  1  1
 19 43  1  6
M  END
