
     RDKit          2D

 65 66  0  0  0  0  0  0  0  0999 V2000
    6.0441   31.6062   11.0734 C   0  0  0  0  0  0  0  0  0  0  0  0
    5.1702   30.5347   10.4920 C   0  0  0  0  0  0  0  0  0  0  0  0
    5.7867   29.3762    9.7655 C   0  0  0  0  0  0  0  0  0  0  0  0
    6.4032   28.2177    9.0390 C   0  0  0  0  0  0  0  0  0  0  0  0
    7.1517   29.9453   10.0164 C   0  0  0  0  0  0  0  0  0  0  0  0
    8.5167   30.5144   10.2672 O   0  0  0  0  0  0  0  0  0  0  0  0
    9.7331   29.7956    9.7634 C   0  0  0  0  0  0  0  0  0  0  0  0
   10.9494   29.0768    9.2596 C   0  0  0  0  0  0  0  0  0  0  0  0
   12.1657   28.3579    8.7558 C   0  0  0  0  0  0  0  0  0  0  0  0
   13.3821   27.6391    8.2521 C   0  0  0  0  0  0  0  0  0  0  0  0
   14.5984   26.9203    7.7483 C   0  0  0  0  0  0  0  0  0  0  0  0
   15.8147   26.2014    7.2445 C   0  0  0  0  0  0  0  0  0  0  0  0
    3.6797   30.6216   10.6371 C   0  0  0  0  0  0  0  0  0  0  0  0
    3.2746   29.3688    9.9186 C   0  0  0  0  0  0  0  0  0  0  0  0
    2.8694   28.1159    9.2001 C   0  0  0  0  0  0  0  0  0  0  0  0
    2.9819   26.8329    8.4313 C   0  0  0  0  0  0  0  0  0  0  0  0
    3.0943   25.5499    7.6625 C   0  0  0  0  0  0  0  0  0  0  0  0
    3.2068   24.2668    6.8936 C   0  0  0  0  0  0  0  0  0  0  0  0
    3.3192   22.9837    6.1248 C   0  0  0  0  0  0  0  0  0  0  0  0
    1.4180   27.7573    9.0782 C   0  0  0  0  0  0  0  0  0  0  0  0
    0.3718   28.6515    9.6747 As  0  0  0  0  0  3  0  0  0  0  0  0
    0.7770   29.9043   10.3931 C   0  0  0  0  0  0  0  0  0  0  0  0
    0.6645   31.1874   11.1620 C   0  0  0  0  0  0  0  0  0  0  0  0
    2.2284   30.2630   10.5151 C   0  0  0  0  0  0  0  0  0  0  0  0
    6.9242   31.5549   10.9878 H   0  0  0  0  0  0  0  0  0  0  0  0
    5.4276   32.7647   11.7999 H   0  0  0  0  0  0  0  0  0  0  0  0
    5.0928   28.8846    9.5180 H   0  0  0  0  0  0  0  0  0  0  0  0
    7.0197   27.0592    8.3125 H   0  0  0  0  0  0  0  0  0  0  0  0
    7.2476   28.4673    9.1346 H   0  0  0  0  0  0  0  0  0  0  0  0
    5.1235   27.5125    8.7000 H   0  0  0  0  0  0  0  0  0  0  0  0
    7.6113   29.3069    9.6092 H   0  0  0  0  0  0  0  0  0  0  0  0
    6.9935   30.6907   10.4678 H   0  0  0  0  0  0  0  0  0  0  0  0
   10.6074   30.8634   10.3510 H   0  0  0  0  0  0  0  0  0  0  0  0
    8.8587   28.7278    9.1759 H   0  0  0  0  0  0  0  0  0  0  0  0
   11.7704   30.3130    9.4778 H   0  0  0  0  0  0  0  0  0  0  0  0
   10.1284   27.8405    9.0415 H   0  0  0  0  0  0  0  0  0  0  0  0
   11.2914   27.2894    8.1695 H   0  0  0  0  0  0  0  0  0  0  0  0
   13.0401   29.4264    9.3422 H   0  0  0  0  0  0  0  0  0  0  0  0
   14.2566   28.7057    8.8417 H   0  0  0  0  0  0  0  0  0  0  0  0
   12.5075   26.5725    7.6625 H   0  0  0  0  0  0  0  0  0  0  0  0
   15.4512   27.6837    8.7177 H   0  0  0  0  0  0  0  0  0  0  0  0
   13.7456   26.1567    6.7789 H   0  0  0  0  0  0  0  0  0  0  0  0
   17.0310   25.4825    6.7407 H   0  0  0  0  0  0  0  0  0  0  0  0
   14.9619   25.4379    6.2751 H   0  0  0  0  0  0  0  0  0  0  0  0
   16.6675   26.9649    8.2139 H   0  0  0  0  0  0  0  0  0  0  0  0
    3.5673   31.9047   11.4059 H   0  0  0  0  0  0  0  0  0  0  0  0
    4.0905   29.0974    9.7063 H   0  0  0  0  0  0  0  0  0  0  0  0
    4.2796   27.7200    8.8767 H   0  0  0  0  0  0  0  0  0  0  0  0
    4.4754   26.9710    8.4193 H   0  0  0  0  0  0  0  0  0  0  0  0
    1.5131   26.5394    8.3495 H   0  0  0  0  0  0  0  0  0  0  0  0
    4.5880   25.6872    7.6518 H   0  0  0  0  0  0  0  0  0  0  0  0
    1.6007   25.4125    7.6731 H   0  0  0  0  0  0  0  0  0  0  0  0
    1.7275   24.2856    6.6459 H   0  0  0  0  0  0  0  0  0  0  0  0
    4.6861   24.2480    7.1414 H   0  0  0  0  0  0  0  0  0  0  0  0
    3.4318   21.7007    5.3559 H   0  0  0  0  0  0  0  0  0  0  0  0
    1.8255   22.8476    6.1335 H   0  0  0  0  0  0  0  0  0  0  0  0
    4.8130   23.1199    6.1161 H   0  0  0  0  0  0  0  0  0  0  0  0
    0.1808   26.9963    8.7039 H   0  0  0  0  0  0  0  0  0  0  0  0
    1.8636   26.5381    8.3264 H   0  0  0  0  0  0  0  0  0  0  0  0
   -1.0795   28.2929    9.5527 H   0  0  0  0  0  0  0  0  0  0  0  0
   -0.7134   29.9914   10.5382 H   0  0  0  0  0  0  0  0  0  0  0  0
    0.5521   32.4705   11.9308 H   0  0  0  0  0  0  0  0  0  0  0  0
   -0.8287   31.0466   11.1786 H   0  0  0  0  0  0  0  0  0  0  0  0
    2.1330   31.4836   11.2392 H   0  0  0  0  0  0  0  0  0  0  0  0
    2.0379   31.5371   11.2835 H   0  0  0  0  0  0  0  0  0  0  0  0
  1  2  2  3
  2  3  1  0
  3  4  1  0
  3  5  1  0
  5  6  1  0
  6  7  1  0
  7  8  1  0
  8  9  1  0
  9 10  1  0
 10 11  1  0
 11 12  1  0
  2 13  1  0
 13 14  1  0
 14 15  1  0
 15 16  1  0
 16 17  1  0
 17 18  1  0
 18 19  1  0
 15 20  1  0
 20 21  1  0
 21 22  1  0
 22 23  1  0
 22 24  1  0
 24 13  1  0
 24 14  1  0
  1 25  1  0
  1 26  1  0
  3 27  1  0
  4 28  1  0
  4 29  1  0
  4 30  1  0
  5 31  1  0
  5 32  1  0
  7 33  1  0
  7 34  1  0
  8 35  1  0
  8 36  1  0
  9 37  1  0
  9 38  1  0
 10 39  1  0
 10 40  1  0
 11 41  1  0
 11 42  1  0
 12 43  1  0
 12 44  1  0
 12 45  1  0
 13 46  1  0
 14 47  1  0
 15 48  1  0
 16 49  1  0
 16 50  1  0
 17 51  1  0
 17 52  1  0
 18 53  1  0
 18 54  1  0
 19 55  1  0
 19 56  1  0
 19 57  1  0
 20 58  1  0
 20 59  1  0
 21 60  1  0
 22 61  1  0
 23 62  1  0
 23 63  1  0
 23 64  1  0
 24 65  1  0
M  END
