
     RDKit          2D

 64 69  0  0  0  0  0  0  0  0999 V2000
   16.7068  -18.8452  -20.2879 C   0  0  0  0  0  0  0  0  0  0  0  0
   16.6544  -18.8150  -18.7892 C   0  0  0  0  0  0  0  0  0  0  0  0
   16.6020  -18.7846  -17.2905 C   0  0  0  0  0  0  0  0  0  0  0  0
   16.5496  -18.7544  -15.7916 C   0  0  0  0  0  0  0  0  0  0  0  0
   16.4971  -18.7240  -14.2928 C   0  0  0  0  0  0  0  0  0  0  0  0
   16.4447  -18.6937  -12.7941 C   0  0  0  0  0  0  0  0  0  0  0  0
   16.3923  -18.6634  -11.2954 C   0  0  0  0  0  0  0  0  0  0  0  0
   16.6496  -20.1792  -12.7569 C   0  0  0  0  0  0  0  0  0  0  0  0
   16.8546  -21.6647  -12.7197 C   0  0  0  0  0  0  0  0  0  0  0  0
   17.0516  -22.8842  -13.5705 N   0  0  0  0  0  0  0  0  0  0  0  0
   17.2566  -24.3696  -13.5334 C   0  0  0  0  0  0  0  0  0  0  0  0
   17.3911  -25.5537  -12.6224 C   0  0  0  0  0  0  0  0  0  0  0  0
   17.5050  -26.0414  -14.0363 C   0  0  0  0  0  0  0  0  0  0  0  0
   17.4037  -25.9840  -11.1854 C   0  0  0  0  0  0  0  0  0  0  0  0
   17.2898  -25.4963   -9.7715 C   0  0  0  0  0  0  0  0  0  0  0  0
   17.2582  -25.6215   -8.2771 C   0  0  0  0  0  0  0  0  0  0  0  0
   17.0927  -24.2768   -8.9207 C   0  0  0  0  0  0  0  0  0  0  0  0
   16.8878  -22.7913   -8.9579 C   0  0  0  0  0  0  0  0  0  0  0  0
   16.7533  -21.6072   -9.8689 C   0  0  0  0  0  0  0  0  0  0  0  0
   16.7406  -21.1769  -11.3058 C   0  0  0  0  0  0  0  0  0  0  0  0
   16.5639  -20.1606  -10.2169 C   0  0  0  0  0  0  0  0  0  0  0  0
   16.3745  -18.7138  -10.5649 C   0  0  0  0  0  0  0  0  0  0  0  0
   16.1978  -17.6974   -9.4759 C   0  0  0  0  0  0  0  0  0  0  0  0
   16.2105  -18.1277   -8.0391 C   0  0  0  0  0  0  0  0  0  0  0  0
   16.3872  -19.1441   -9.1280 C   0  0  0  0  0  0  0  0  0  0  0  0
   16.7592  -18.8754  -21.7867 H   0  0  0  0  0  0  0  0  0  0  0  0
   16.5034  -17.3595  -20.3250 H   0  0  0  0  0  0  0  0  0  0  0  0
   16.9103  -20.3309  -20.2509 H   0  0  0  0  0  0  0  0  0  0  0  0
   16.8620  -20.3001  -18.7519 H   0  0  0  0  0  0  0  0  0  0  0  0
   16.4468  -17.3298  -18.8265 H   0  0  0  0  0  0  0  0  0  0  0  0
   16.8127  -20.2693  -17.2530 H   0  0  0  0  0  0  0  0  0  0  0  0
   16.3912  -17.3000  -17.3278 H   0  0  0  0  0  0  0  0  0  0  0  0
   16.7503  -20.2403  -15.7546 H   0  0  0  0  0  0  0  0  0  0  0  0
   16.3488  -17.2683  -15.8287 H   0  0  0  0  0  0  0  0  0  0  0  0
   16.6315  -20.2107  -14.4411 H   0  0  0  0  0  0  0  0  0  0  0  0
   16.3682  -17.2300  -14.3276 H   0  0  0  0  0  0  0  0  0  0  0  0
   16.2398  -17.2082  -12.8313 H   0  0  0  0  0  0  0  0  0  0  0  0
   16.3388  -18.4568  -10.5273 H   0  0  0  0  0  0  0  0  0  0  0  0
   16.1864  -17.1781  -11.3325 H   0  0  0  0  0  0  0  0  0  0  0  0
   16.5982  -20.1488  -11.2581 H   0  0  0  0  0  0  0  0  0  0  0  0
   16.7275  -20.3902  -14.2399 H   0  0  0  0  0  0  0  0  0  0  0  0
   16.5963  -20.1490  -11.2581 H   0  0  0  0  0  0  0  0  0  0  0  0
   16.8419  -21.2343  -14.1565 H   0  0  0  0  0  0  0  0  0  0  0  0
   17.0389  -22.4539  -15.0074 H   0  0  0  0  0  0  0  0  0  0  0  0
   17.2182  -23.7692  -14.9074 H   0  0  0  0  0  0  0  0  0  0  0  0
   17.4291  -25.3475  -14.6576 H   0  0  0  0  0  0  0  0  0  0  0  0
   17.6009  -27.0318  -12.7681 H   0  0  0  0  0  0  0  0  0  0  0  0
   17.6190  -26.5292  -15.4501 H   0  0  0  0  0  0  0  0  0  0  0  0
   17.6851  -27.4447  -13.5376 H   0  0  0  0  0  0  0  0  0  0  0  0
   17.3402  -24.7081  -14.7034 H   0  0  0  0  0  0  0  0  0  0  0  0
   17.6088  -27.2979  -11.8794 H   0  0  0  0  0  0  0  0  0  0  0  0
   17.5572  -27.2687  -10.4263 H   0  0  0  0  0  0  0  0  0  0  0  0
   17.4775  -26.9369   -9.3981 H   0  0  0  0  0  0  0  0  0  0  0  0
   17.4589  -27.1013   -8.1355 H   0  0  0  0  0  0  0  0  0  0  0  0
   17.1570  -25.2328   -6.8318 H   0  0  0  0  0  0  0  0  0  0  0  0
   17.0218  -24.1172   -7.4308 H   0  0  0  0  0  0  0  0  0  0  0  0
   16.8746  -23.0451   -7.4795 H   0  0  0  0  0  0  0  0  0  0  0  0
   16.7016  -21.6844   -7.9629 H   0  0  0  0  0  0  0  0  0  0  0  0
   16.6021  -20.8163   -8.6034 H   0  0  0  0  0  0  0  0  0  0  0  0
   16.5583  -19.7573  -11.7545 H   0  0  0  0  0  0  0  0  0  0  0  0
   16.3618  -18.2835  -12.0018 H   0  0  0  0  0  0  0  0  0  0  0  0
   16.0085  -16.2506   -9.8240 H   0  0  0  0  0  0  0  0  0  0  0  0
   16.0046  -16.8020   -7.3683 H   0  0  0  0  0  0  0  0  0  0  0  0
   16.2947  -19.0185   -6.8352 H   0  0  0  0  0  0  0  0  0  0  0  0
  1  2  1  0
  2  3  1  0
  3  4  1  0
  4  5  1  0
  5  6  1  0
  6  7  1  0
  6  8  1  0
  8  9  1  0
  9 10  1  0
 10 11  1  0
 11 12  1  0
 12 13  1  0
 12 14  1  0
 14 15  1  0
 15 16  1  0
 16 17  1  0
 17 18  1  0
 18 19  1  0
 19 20  1  0
 20 21  1  0
 21 22  1  0
 22 23  1  0
 23 24  1  0
 24 25  1  0
 20  9  1  0
 25 21  1  0
 17 15  1  0
 21 19  1  0
 25 22  1  0
 25 23  1  0
  1 26  1  0
  1 27  1  0
  1 28  1  0
  2 29  1  0
  2 30  1  0
  3 31  1  0
  3 32  1  0
  4 33  1  0
  4 34  1  0
  5 35  1  0
  5 36  1  0
  6 37  1  0
  7 38  1  0
  7 39  1  0
  7 40  1  0
  8 41  1  0
  8 42  1  0
  9 43  1  0
 10 44  1  0
 11 45  1  0
 11 46  1  0
 12 47  1  0
 13 48  1  0
 13 49  1  0
 13 50  1  0
 14 51  1  0
 14 52  1  0
 15 53  1  0
 16 54  1  0
 16 55  1  0
 17 56  1  0
 18 57  1  0
 18 58  1  0
 19 59  1  0
 20 60  1  0
 22 61  1  0
 23 62  1  0
 24 63  1  0
 24 64  1  0
M  END
