
     RDKit          2D

111119  0  0  0  0  0  0  0  0999 V2000
    0.8359   29.3334    5.4465 C   0  0  0  0  0  0  0  0  0  0  0  0
    0.2060   28.0742    5.9637 C   0  0  0  0  0  0  0  0  0  0  0  0
    1.0061   27.1272    6.8080 C   0  0  0  0  0  0  0  0  0  0  0  0
    0.0644   26.0057    7.1325 C   0  0  0  0  0  0  0  0  0  0  0  0
   -1.0165   26.6856    6.3452 C   0  0  0  0  0  0  0  0  0  0  0  0
   -2.0972   27.3654    5.5580 C   0  0  0  0  0  0  0  0  0  0  0  0
    1.1451   25.3258    7.9197 C   0  0  0  0  0  0  0  0  0  0  0  0
    2.0869   26.4474    7.5953 C   0  0  0  0  0  0  0  0  0  0  0  0
    2.3621   27.7585    6.9207 C   0  0  0  0  0  0  0  0  0  0  0  0
    2.1396   29.0002    6.1091 C   0  0  0  0  0  0  0  0  0  0  0  0
    1.9171   30.2419    5.2975 C   0  0  0  0  0  0  0  0  0  0  0  0
    3.0322   31.2283    5.1147 C   0  0  0  0  0  0  0  0  0  0  0  0
    4.3699   30.9730    5.7435 C   0  0  0  0  0  0  0  0  0  0  0  0
    5.7779   30.4841    5.9120 C   0  0  0  0  0  0  0  0  0  0  0  0
    7.1859   29.9952    6.0805 C   0  0  0  0  0  0  0  0  0  0  0  0
    7.8531   29.2339    4.9734 C   0  0  0  0  0  0  0  0  0  0  0  0
    7.1122   28.9616    3.6980 C   0  0  0  0  0  0  0  0  0  0  0  0
    8.5108   28.5670    4.0696 C   0  0  0  0  0  0  0  0  0  0  0  0
    7.9568   28.1902    2.7276 C   0  0  0  0  0  0  0  0  0  0  0  0
    7.6018   27.7172    1.3491 C   0  0  0  0  0  0  0  0  0  0  0  0
    7.8737   27.0266    0.0455 C   0  0  0  0  0  0  0  0  0  0  0  0
    6.3148   27.8988    0.6005 C   0  0  0  0  0  0  0  0  0  0  0  0
    5.0647   28.5982    1.0455 C   0  0  0  0  0  0  0  0  0  0  0  0
    4.7929   29.2888    2.3490 C   0  0  0  0  0  0  0  0  0  0  0  0
    3.9483   30.0602    3.3194 C   0  0  0  0  0  0  0  0  0  0  0  0
    3.1037   30.8316    4.2897 C   0  0  0  0  0  0  0  0  0  0  0  0
    5.7041   29.4505    3.5295 C   0  0  0  0  0  0  0  0  0  0  0  0
    5.0370   30.2118    4.6365 C   0  0  0  0  0  0  0  0  0  0  0  0
    0.7245   28.5765    5.8487 C   0  0  0  0  0  0  0  0  0  0  0  0
   -0.6907   28.1526    5.5884 C   0  0  0  0  0  0  0  0  0  0  0  0
   -2.0622   28.3095    5.0017 C   0  0  0  0  0  0  0  0  0  0  0  0
   -3.2406   27.3890    5.1192 C   0  0  0  0  0  0  0  0  0  0  0  0
   -4.2662   26.2126    5.4426 C   0  0  0  0  0  0  0  0  0  0  0  0
   -4.6874   24.9109    6.0575 C   0  0  0  0  0  0  0  0  0  0  0  0
   -4.0172   23.8743    6.9097 C   0  0  0  0  0  0  0  0  0  0  0  0
   -5.4136   23.3657    6.7060 C   0  0  0  0  0  0  0  0  0  0  0  0
   -6.8100   22.8572    6.5023 C   0  0  0  0  0  0  0  0  0  0  0  0
   -8.2064   22.3487    6.2986 C   0  0  0  0  0  0  0  0  0  0  0  0
   -2.6481   23.7099    7.4999 O   0  0  0  0  0  0  0  0  0  0  0  0
   -1.3820   24.5141    7.4825 C   0  0  0  0  0  0  0  0  0  0  0  0
   -2.2822   25.3775    6.6495 C   0  0  0  0  0  0  0  0  0  0  0  0
   -3.3386   26.0840    5.8526 C   0  0  0  0  0  0  0  0  0  0  0  0
   -4.0469   24.8490    6.3248 C   0  0  0  0  0  0  0  0  0  0  0  0
   -0.8672   25.8014    6.9098 C   0  0  0  0  0  0  0  0  0  0  0  0
   -0.1588   27.0364    6.4376 C   0  0  0  0  0  0  0  0  0  0  0  0
    0.0357   30.2803    4.6022 H   0  0  0  0  0  0  0  0  0  0  0  0
    2.1998   29.9447    5.5738 H   0  0  0  0  0  0  0  0  0  0  0  0
   -1.2016   27.6089    5.7347 H   0  0  0  0  0  0  0  0  0  0  0  0
   -0.5880   24.7531    7.6378 H   0  0  0  0  0  0  0  0  0  0  0  0
   -2.1926   25.7632    6.4718 H   0  0  0  0  0  0  0  0  0  0  0  0
   -0.3633   27.9369    5.8377 H   0  0  0  0  0  0  0  0  0  0  0  0
   -2.7496   26.1129    6.0636 H   0  0  0  0  0  0  0  0  0  0  0  0
   -1.6053   28.6559    4.9726 H   0  0  0  0  0  0  0  0  0  0  0  0
   -3.3738   27.7537    4.8727 H   0  0  0  0  0  0  0  0  0  0  0  0
    2.2259   24.6460    8.7070 H   0  0  0  0  0  0  0  0  0  0  0  0
    0.2033   24.2044    8.2442 H   0  0  0  0  0  0  0  0  0  0  0  0
    3.3746   26.0809    8.2718 H   0  0  0  0  0  0  0  0  0  0  0  0
    3.7955   27.9586    7.3152 H   0  0  0  0  0  0  0  0  0  0  0  0
    3.5713   29.2695    6.4664 H   0  0  0  0  0  0  0  0  0  0  0  0
    0.7438   30.8008    4.5485 H   0  0  0  0  0  0  0  0  0  0  0  0
    2.3168   32.2362    4.2647 H   0  0  0  0  0  0  0  0  0  0  0  0
    4.3388   31.5945    7.1083 H   0  0  0  0  0  0  0  0  0  0  0  0
    5.8206   31.0808    7.2875 H   0  0  0  0  0  0  0  0  0  0  0  0
    8.5236   29.7398    6.7092 H   0  0  0  0  0  0  0  0  0  0  0  0
    6.9835   30.6677    7.4058 H   0  0  0  0  0  0  0  0  0  0  0  0
    9.0999   28.5329    4.5220 H   0  0  0  0  0  0  0  0  0  0  0  0
    8.8445   29.3369    6.0944 H   0  0  0  0  0  0  0  0  0  0  0  0
    8.7594   29.0857    5.4550 H   0  0  0  0  0  0  0  0  0  0  0  0
    9.8825   27.9695    3.9621 H   0  0  0  0  0  0  0  0  0  0  0  0
    9.2897   27.5471    2.4832 H   0  0  0  0  0  0  0  0  0  0  0  0
    9.0099   27.2283    1.5176 H   0  0  0  0  0  0  0  0  0  0  0  0
    9.2583   26.6890    0.5131 H   0  0  0  0  0  0  0  0  0  0  0  0
    6.5324   27.2775   -0.5775 H   0  0  0  0  0  0  0  0  0  0  0  0
    8.1454   26.3360   -1.2580 H   0  0  0  0  0  0  0  0  0  0  0  0
    7.0157   27.1344   -0.4833 H   0  0  0  0  0  0  0  0  0  0  0  0
    5.5413   27.6463   -0.6598 H   0  0  0  0  0  0  0  0  0  0  0  0
    4.5463   28.2031   -0.3055 H   0  0  0  0  0  0  0  0  0  0  0  0
    3.6620   29.0108    0.7106 H   0  0  0  0  0  0  0  0  0  0  0  0
    3.4457   29.5604    1.7482 H   0  0  0  0  0  0  0  0  0  0  0  0
    2.8523   30.1441    2.2987 H   0  0  0  0  0  0  0  0  0  0  0  0
    4.8074   30.1654    4.5446 H   0  0  0  0  0  0  0  0  0  0  0  0
    2.0877   30.7477    3.1895 H   0  0  0  0  0  0  0  0  0  0  0  0
    3.9933   31.0084    5.4846 H   0  0  0  0  0  0  0  0  0  0  0  0
    2.0115   31.5825    4.9919 H   0  0  0  0  0  0  0  0  0  0  0  0
    6.0784   28.7362    2.2648 H   0  0  0  0  0  0  0  0  0  0  0  0
    3.6718   30.5173    4.0954 H   0  0  0  0  0  0  0  0  0  0  0  0
    0.7731   27.2918    6.6218 H   0  0  0  0  0  0  0  0  0  0  0  0
    0.5016   29.8185    5.0379 H   0  0  0  0  0  0  0  0  0  0  0  0
   -0.4193   29.4644    4.9135 H   0  0  0  0  0  0  0  0  0  0  0  0
   -1.5109   29.5893    4.4465 H   0  0  0  0  0  0  0  0  0  0  0  0
   -3.1186   29.0160    4.2048 H   0  0  0  0  0  0  0  0  0  0  0  0
   -4.4858   27.8318    4.4097 H   0  0  0  0  0  0  0  0  0  0  0  0
   -5.3698   26.8626    4.6620 H   0  0  0  0  0  0  0  0  0  0  0  0
   -6.1194   24.7214    5.6531 H   0  0  0  0  0  0  0  0  0  0  0  0
   -4.0698   22.5744    7.6564 H   0  0  0  0  0  0  0  0  0  0  0  0
   -5.0961   22.1597    7.5395 H   0  0  0  0  0  0  0  0  0  0  0  0
   -6.0596   24.4128    5.8480 H   0  0  0  0  0  0  0  0  0  0  0  0
   -6.5141   21.6876    7.3936 H   0  0  0  0  0  0  0  0  0  0  0  0
   -7.1059   24.0269    5.6110 H   0  0  0  0  0  0  0  0  0  0  0  0
   -8.5241   23.5549    5.4654 H   0  0  0  0  0  0  0  0  0  0  0  0
   -7.8887   21.1425    7.1318 H   0  0  0  0  0  0  0  0  0  0  0  0
   -9.6028   21.8402    6.0949 H   0  0  0  0  0  0  0  0  0  0  0  0
   -1.1594   23.2724    8.2941 H   0  0  0  0  0  0  0  0  0  0  0  0
   -3.1988   24.2398    6.9893 H   0  0  0  0  0  0  0  0  0  0  0  0
   -4.7694   25.9211    5.4329 H   0  0  0  0  0  0  0  0  0  0  0  0
   -5.1853   25.4212    5.5331 H   0  0  0  0  0  0  0  0  0  0  0  0
   -3.1490   24.0097    7.1846 H   0  0  0  0  0  0  0  0  0  0  0  0
   -4.7552   23.6140    6.7970 H   0  0  0  0  0  0  0  0  0  0  0  0
    0.4274   25.4520    7.5821 H   0  0  0  0  0  0  0  0  0  0  0  0
    0.8975   26.3298    7.2345 H   0  0  0  0  0  0  0  0  0  0  0  0
    1.1101   27.8361    6.4238 H   0  0  0  0  0  0  0  0  0  0  0  0
  1  2  2  0
  3  2  1  6
  3  4  1  0
  4  5  1  0
  5  6  1  0
  4  7  1  0
  7  8  1  0
  8  9  1  0
  9 10  1  0
 10 11  1  0
 11 12  2  3
 12 13  1  0
 13 14  1  0
 14 15  1  0
 15 16  1  0
 17 16  1  1
 17 18  1  0
 18 19  1  0
 19 20  1  0
 20 21  1  0
 20 22  1  0
 22 23  1  0
 23 24  1  0
 24 25  1  0
 25 26  1  0
 24 27  1  0
 27 28  1  0
 10 29  1  0
 29 30  1  0
 30 31  1  0
 31 32  1  0
 32 33  1  0
 33 34  2  0
 34 35  1  0
 35 36  1  0
 36 37  1  0
 37 38  1  0
 35 39  1  0
 39 40  1  0
 40 41  1  0
 41 42  1  0
 42 43  1  0
 41 44  1  0
 44 45  1  0
  8  3  1  0
 28 13  1  0
 45 30  1  0
  9  3  1  0
 28 14  1  0
 42 32  1  0
 19 17  1  0
 44 40  1  0
 27 17  1  0
  1 46  1  0
  1 47  1  0
  2 48  1  0
  4 49  1  6
  5 50  1  0
  5 51  1  0
  6 52  1  0
  6 53  1  0
  6 54  1  0
  7 55  1  0
  7 56  1  0
  8 57  1  6
  9 58  1  1
 10 59  1  6
 11 60  1  0
 12 61  1  0
 13 62  1  6
 14 63  1  1
 15 64  1  0
 15 65  1  0
 16 66  1  0
 16 67  1  0
 18 68  1  0
 18 69  1  0
 19 70  1  1
 20 71  1  6
 21 72  1  0
 21 73  1  0
 21 74  1  0
 22 75  1  0
 22 76  1  0
 23 77  1  0
 23 78  1  0
 24 79  1  1
 25 80  1  0
 25 81  1  0
 26 82  1  0
 26 83  1  0
 26 84  1  0
 27 85  1  1
 28 86  1  1
 29 87  1  0
 29 88  1  0
 30 89  1  6
 31 90  1  0
 31 91  1  0
 32 92  1  6
 33 93  1  0
 34 94  1  0
 35 95  1  6
 36 96  1  0
 36 97  1  0
 37 98  1  0
 37 99  1  0
 38100  1  0
 38101  1  0
 38102  1  0
 40103  1  1
 41104  1  6
 42105  1  6
 43106  1  0
 43107  1  0
 43108  1  0
 44109  1  6
 45110  1  0
 45111  1  0
M  END
