
     RDKit          2D

 76 80  0  0  0  0  0  0  0  0999 V2000
   17.6826  -21.2928  -18.9840 C   0  0  0  0  0  0  0  0  0  0  0  0
   18.5668  -20.4964  -18.0708 C   0  0  0  0  0  0  0  0  0  0  0  0
   18.5855  -20.7910  -16.6001 C   0  0  0  0  0  0  0  0  0  0  0  0
   17.7199  -21.8820  -16.0426 O   0  0  0  0  0  0  0  0  0  0  0  0
   19.4697  -19.9946  -15.6869 C   0  0  0  0  0  0  0  0  0  0  0  0
   20.3538  -19.1983  -14.7736 C   0  0  0  0  0  0  0  0  0  0  0  0
   21.2381  -18.4019  -13.8604 C   0  0  0  0  0  0  0  0  0  0  0  0
   22.1223  -17.6055  -12.9472 C   0  0  0  0  0  0  0  0  0  0  0  0
   23.0064  -16.8091  -12.0340 C   0  0  0  0  0  0  0  0  0  0  0  0
   20.7487  -19.2014  -12.6894 C   0  0  0  0  0  0  0  0  0  0  0  0
   20.2593  -20.0009  -11.5184 C   0  0  0  0  0  0  0  0  0  0  0  0
   19.3027  -20.9232  -12.2142 C   0  0  0  0  0  0  0  0  0  0  0  0
   18.3461  -21.8456  -12.9100 C   0  0  0  0  0  0  0  0  0  0  0  0
   17.5835  -22.8690  -12.1219 C   0  0  0  0  0  0  0  0  0  0  0  0
   16.6269  -23.7913  -12.8178 C   0  0  0  0  0  0  0  0  0  0  0  0
   15.8643  -24.8147  -12.0296 C   0  0  0  0  0  0  0  0  0  0  0  0
   16.0584  -24.9158  -10.5457 C   0  0  0  0  0  0  0  0  0  0  0  0
   17.0151  -23.9935   -9.8499 C   0  0  0  0  0  0  0  0  0  0  0  0
   17.7776  -22.9701  -10.6380 C   0  0  0  0  0  0  0  0  0  0  0  0
   18.7342  -22.0478   -9.9421 C   0  0  0  0  0  0  0  0  0  0  0  0
   19.7127  -21.0795   -9.3463 C   0  0  0  0  0  0  0  0  0  0  0  0
   20.1228  -20.9281   -7.9114 C   0  0  0  0  0  0  0  0  0  0  0  0
   19.6556  -21.7076   -6.7179 C   0  0  0  0  0  0  0  0  0  0  0  0
   18.6631  -22.8310   -6.6646 C   0  0  0  0  0  0  0  0  0  0  0  0
   17.8925  -23.4523   -7.7917 C   0  0  0  0  0  0  0  0  0  0  0  0
   17.4254  -24.2317   -6.5982 N   0  0  0  0  0  0  0  0  0  0  0  0
   16.4607  -25.3594   -6.3792 C   0  0  0  0  0  0  0  0  0  0  0  0
   16.7648  -25.3340   -4.9105 N   0  0  0  0  0  0  0  0  0  0  0  0
   17.7293  -24.2064   -5.1296 C   0  0  0  0  0  0  0  0  0  0  0  0
   18.6940  -23.0788   -5.3487 O   0  0  0  0  0  0  0  0  0  0  0  0
   17.9242  -23.1037   -9.2503 C   0  0  0  0  0  0  0  0  0  0  0  0
   19.4968  -21.0243  -10.7302 C   0  0  0  0  0  0  0  0  0  0  0  0
   17.6639  -20.9982  -20.4547 H   0  0  0  0  0  0  0  0  0  0  0  0
   16.8171  -22.3837  -18.4265 H   0  0  0  0  0  0  0  0  0  0  0  0
   19.4323  -19.4055  -18.6282 H   0  0  0  0  0  0  0  0  0  0  0  0
   19.0919  -20.6913  -14.4133 H   0  0  0  0  0  0  0  0  0  0  0  0
   19.9588  -19.1950  -16.8579 H   0  0  0  0  0  0  0  0  0  0  0  0
   20.6690  -18.7248  -15.3321 H   0  0  0  0  0  0  0  0  0  0  0  0
   20.5545  -18.8279  -15.4505 H   0  0  0  0  0  0  0  0  0  0  0  0
   21.7274  -17.6023  -15.0314 H   0  0  0  0  0  0  0  0  0  0  0  0
   22.6127  -16.8070  -14.1184 H   0  0  0  0  0  0  0  0  0  0  0  0
   21.7432  -18.3010  -11.6733 H   0  0  0  0  0  0  0  0  0  0  0  0
   23.8906  -16.0127  -11.1207 H   0  0  0  0  0  0  0  0  0  0  0  0
   23.4922  -16.0064  -13.2042 H   0  0  0  0  0  0  0  0  0  0  0  0
   22.5207  -17.6119  -10.8636 H   0  0  0  0  0  0  0  0  0  0  0  0
   19.9304  -19.8941  -13.7385 H   0  0  0  0  0  0  0  0  0  0  0  0
   21.5670  -18.5087  -11.6403 H   0  0  0  0  0  0  0  0  0  0  0  0
   21.0460  -19.3563  -10.4158 H   0  0  0  0  0  0  0  0  0  0  0  0
   19.5118  -20.3913  -13.6010 H   0  0  0  0  0  0  0  0  0  0  0  0
   17.6427  -22.3726  -14.1256 H   0  0  0  0  0  0  0  0  0  0  0  0
   18.9397  -20.9550  -13.9611 H   0  0  0  0  0  0  0  0  0  0  0  0
   17.2699  -22.9055  -13.5883 H   0  0  0  0  0  0  0  0  0  0  0  0
   16.4328  -23.6902  -14.3017 H   0  0  0  0  0  0  0  0  0  0  0  0
   14.9077  -25.7370  -12.7255 H   0  0  0  0  0  0  0  0  0  0  0  0
   15.9013  -25.3950   -9.1330 H   0  0  0  0  0  0  0  0  0  0  0  0
   15.0472  -26.0046  -10.7509 H   0  0  0  0  0  0  0  0  0  0  0  0
   17.6246  -23.5919   -8.5394 H   0  0  0  0  0  0  0  0  0  0  0  0
   16.3261  -24.9618   -8.9346 H   0  0  0  0  0  0  0  0  0  0  0  0
   18.5401  -21.9467  -11.4261 H   0  0  0  0  0  0  0  0  0  0  0  0
   19.9880  -20.4818  -10.6941 H   0  0  0  0  0  0  0  0  0  0  0  0
   20.7053  -19.9561   -9.3996 H   0  0  0  0  0  0  0  0  0  0  0  0
   21.0006  -19.8317   -8.4379 H   0  0  0  0  0  0  0  0  0  0  0  0
   20.9675  -20.1966   -6.9107 H   0  0  0  0  0  0  0  0  0  0  0  0
   20.5957  -20.8170   -5.9607 H   0  0  0  0  0  0  0  0  0  0  0  0
   19.7474  -21.9227   -5.2363 H   0  0  0  0  0  0  0  0  0  0  0  0
   19.1828  -22.5444   -5.2870 H   0  0  0  0  0  0  0  0  0  0  0  0
   18.0236  -23.7597   -5.6754 H   0  0  0  0  0  0  0  0  0  0  0  0
   16.8812  -24.5318   -8.0408 H   0  0  0  0  0  0  0  0  0  0  0  0
   15.4961  -26.4870   -6.1600 H   0  0  0  0  0  0  0  0  0  0  0  0
   16.1568  -25.3846   -7.8479 H   0  0  0  0  0  0  0  0  0  0  0  0
   16.2976  -26.1135   -3.7171 H   0  0  0  0  0  0  0  0  0  0  0  0
   18.0333  -24.1811   -3.6609 H   0  0  0  0  0  0  0  0  0  0  0  0
   19.4404  -22.4939   -4.1865 H   0  0  0  0  0  0  0  0  0  0  0  0
   17.0081  -24.2182   -8.8395 H   0  0  0  0  0  0  0  0  0  0  0  0
   17.3026  -23.5211  -10.5500 H   0  0  0  0  0  0  0  0  0  0  0  0
   20.3904  -20.2149   -9.8378 H   0  0  0  0  0  0  0  0  0  0  0  0
  1  2  2  3
  2  3  1  0
  3  4  2  0
  3  5  1  0
  5  6  1  0
  6  7  1  0
  7  8  1  0
  8  9  1  0
  7 10  1  0
 10 11  1  0
 11 12  1  0
 12 13  1  0
 13 14  1  0
 14 15  1  0
 15 16  2  0
 16 17  1  0
 17 18  1  0
 18 19  1  0
 19 20  1  0
 20 21  1  0
 21 22  1  0
 22 23  1  0
 23 24  1  0
 24 25  1  0
 25 26  1  0
 26 27  1  0
 27 28  1  0
 28 29  1  0
 29 30  1  0
 25 31  1  0
 20 32  1  0
 32 11  1  0
 32 12  1  0
 19 14  1  0
 31 20  1  0
 29 26  1  0
  1 33  1  0
  1 34  1  0
  2 35  1  0
  5 36  1  0
  5 37  1  0
  6 38  1  0
  6 39  1  0
  7 40  1  0
  8 41  1  0
  8 42  1  0
  9 43  1  0
  9 44  1  0
  9 45  1  0
 10 46  1  0
 10 47  1  0
 11 48  1  0
 12 49  1  0
 13 50  1  0
 13 51  1  0
 14 52  1  0
 15 53  1  0
 16 54  1  0
 17 55  1  0
 17 56  1  0
 18 57  1  0
 18 58  1  0
 19 59  1  0
 21 60  1  0
 21 61  1  0
 22 62  1  0
 22 63  1  0
 23 64  1  0
 23 65  1  0
 24 66  1  0
 24 67  1  0
 25 68  1  0
 27 69  1  0
 27 70  1  0
 28 71  1  0
 29 72  1  0
 30 73  1  0
 31 74  1  0
 31 75  1  0
 32 76  1  0
M  END
