
     RDKit          2D

 31 31  0  0  0  0  0  0  0  0999 V2000
   15.9866  -20.0091  -12.4786 C   0  0  0  0  0  0  0  0  0  0  0  0
   16.2727  -20.5359  -11.1036 C   0  0  0  0  0  0  0  0  0  0  0  0
   16.5589  -21.0628   -9.7286 C   0  0  0  0  0  0  0  0  0  0  0  0
   16.8451  -21.5896   -8.3536 N   0  0  0  0  0  0  0  0  0  0  0  0
   17.5664  -22.8940   -8.1854 C   0  0  0  0  0  0  0  0  0  0  0  0
   16.4099  -20.8122   -7.1470 C   0  0  0  0  0  0  0  0  0  0  0  0
   15.8282  -19.7549   -8.0379 C   0  0  0  0  0  0  0  0  0  0  0  0
   16.9916  -21.8694   -6.2560 C   0  0  0  0  0  0  0  0  0  0  0  0
   17.5733  -22.9266   -5.3649 C   0  0  0  0  0  0  0  0  0  0  0  0
   17.1370  -22.1497   -4.1583 O   0  0  0  0  0  0  0  0  0  0  0  0
   16.5553  -21.0925   -5.0492 C   0  0  0  0  0  0  0  0  0  0  0  0
   16.1190  -20.3156   -3.8426 O   0  0  0  0  0  0  0  0  0  0  0  0
   15.7004  -19.4822  -13.8535 H   0  0  0  0  0  0  0  0  0  0  0  0
   16.6534  -21.2114  -13.0781 H   0  0  0  0  0  0  0  0  0  0  0  0
   15.3196  -18.8067  -11.8790 H   0  0  0  0  0  0  0  0  0  0  0  0
   17.3946  -21.3651  -11.6548 H   0  0  0  0  0  0  0  0  0  0  0  0
   15.1508  -19.7068  -10.5524 H   0  0  0  0  0  0  0  0  0  0  0  0
   16.5461  -20.2894   -9.5356 H   0  0  0  0  0  0  0  0  0  0  0  0
   16.5480  -22.4642  -10.2633 H   0  0  0  0  0  0  0  0  0  0  0  0
   18.2877  -24.1984   -8.0172 H   0  0  0  0  0  0  0  0  0  0  0  0
   17.2933  -23.2303   -9.6215 H   0  0  0  0  0  0  0  0  0  0  0  0
   17.9254  -22.7192   -6.7395 H   0  0  0  0  0  0  0  0  0  0  0  0
   15.9071  -19.9115   -6.0579 H   0  0  0  0  0  0  0  0  0  0  0  0
   15.2465  -18.6977   -8.9289 H   0  0  0  0  0  0  0  0  0  0  0  0
   15.3924  -18.9778   -6.8313 H   0  0  0  0  0  0  0  0  0  0  0  0
   15.9336  -19.9391   -8.8063 H   0  0  0  0  0  0  0  0  0  0  0  0
   17.6074  -22.9736   -7.0631 H   0  0  0  0  0  0  0  0  0  0  0  0
   18.0096  -23.7036   -6.5717 H   0  0  0  0  0  0  0  0  0  0  0  0
   18.1550  -23.9839   -4.4740 H   0  0  0  0  0  0  0  0  0  0  0  0
   15.9248  -19.9484   -5.7865 H   0  0  0  0  0  0  0  0  0  0  0  0
   15.3984  -19.0108   -4.0108 H   0  0  0  0  0  0  0  0  0  0  0  0
  1  2  1  0
  2  3  1  0
  3  4  1  0
  4  5  1  0
  4  6  1  0
  6  7  1  0
  6  8  1  0
  8  9  1  0
  9 10  1  0
 10 11  1  0
 11 12  1  0
 11  8  1  0
  1 13  1  0
  1 14  1  0
  1 15  1  0
  2 16  1  0
  2 17  1  0
  3 18  1  0
  3 19  1  0
  5 20  1  0
  5 21  1  0
  5 22  1  0
  6 23  1  0
  7 24  1  0
  7 25  1  0
  7 26  1  0
  8 27  1  0
  9 28  1  0
  9 29  1  0
 11 30  1  0
 12 31  1  0
M  END
