
     RDKit          2D

 37 40  0  0  0  0  0  0  0  0999 V2000
   15.9376  -13.8677  -10.8050 C   0  0  0  0  0  0  0  0  0  0  0  0
   16.8351  -14.9517  -10.2860 C   0  0  0  0  0  0  0  0  0  0  0  0
   17.7326  -16.0357   -9.7669 C   0  0  0  0  0  0  0  0  0  0  0  0
   18.6301  -17.1198   -9.2479 C   0  0  0  0  0  0  0  0  0  0  0  0
   17.0327  -17.0337  -10.6411 C   0  0  0  0  0  0  0  0  0  0  0  0
   16.3328  -18.0317  -11.5152 C   0  0  0  0  0  0  0  0  0  0  0  0
   15.6329  -19.0297  -12.3894 C   0  0  0  0  0  0  0  0  0  0  0  0
   16.2015  -20.9245  -11.6235 C   0  0  0  0  0  0  0  0  0  0  0  0
   16.3744  -22.3932  -11.3721 C   0  0  0  0  0  0  0  0  0  0  0  0
   16.5473  -23.8618  -11.1208 O   0  0  0  0  0  0  0  0  0  0  0  0
   17.1095  -20.6200  -10.4690 C   0  0  0  0  0  0  0  0  0  0  0  0
   18.0175  -20.3156   -9.3146 C   0  0  0  0  0  0  0  0  0  0  0  0
   17.8445  -18.8469   -9.5659 C   0  0  0  0  0  0  0  0  0  0  0  0
   16.9365  -19.1514  -10.7203 C   0  0  0  0  0  0  0  0  0  0  0  0
   16.2366  -20.1494  -11.5945 C   0  0  0  0  0  0  0  0  0  0  0  0
   15.0401  -12.7836  -11.3240 H   0  0  0  0  0  0  0  0  0  0  0  0
   17.1374  -13.0976  -11.2714 H   0  0  0  0  0  0  0  0  0  0  0  0
   14.7378  -14.6377  -10.3386 H   0  0  0  0  0  0  0  0  0  0  0  0
   15.5350  -15.5819   -9.8827 H   0  0  0  0  0  0  0  0  0  0  0  0
   18.0347  -14.1836  -10.7561 H   0  0  0  0  0  0  0  0  0  0  0  0
   18.4325  -15.0377   -8.8928 H   0  0  0  0  0  0  0  0  0  0  0  0
   19.6521  -18.0722   -8.7018 H   0  0  0  0  0  0  0  0  0  0  0  0
   19.7067  -16.1067   -8.9938 H   0  0  0  0  0  0  0  0  0  0  0  0
   18.1903  -17.7816   -9.3122 H   0  0  0  0  0  0  0  0  0  0  0  0
   18.0274  -17.4632  -10.4932 H   0  0  0  0  0  0  0  0  0  0  0  0
   15.7248  -16.3057  -10.7387 H   0  0  0  0  0  0  0  0  0  0  0  0
   15.7290  -16.9121  -12.3101 H   0  0  0  0  0  0  0  0  0  0  0  0
   14.7110  -18.9437  -13.5696 H   0  0  0  0  0  0  0  0  0  0  0  0
   15.3213  -21.4057  -12.7387 H   0  0  0  0  0  0  0  0  0  0  0  0
   15.4703  -22.6977  -12.5297 H   0  0  0  0  0  0  0  0  0  0  0  0
   17.2784  -22.0886  -10.2146 H   0  0  0  0  0  0  0  0  0  0  0  0
   15.8474  -24.8598  -11.9950 H   0  0  0  0  0  0  0  0  0  0  0  0
   18.9255  -20.0111   -8.1601 H   0  0  0  0  0  0  0  0  0  0  0  0
   18.1904  -21.7843   -9.0632 H   0  0  0  0  0  0  0  0  0  0  0  0
   17.6716  -17.3782   -9.8172 H   0  0  0  0  0  0  0  0  0  0  0  0
   18.7669  -18.7237   -8.3894 H   0  0  0  0  0  0  0  0  0  0  0  0
   15.6276  -21.2935  -12.3495 H   0  0  0  0  0  0  0  0  0  0  0  0
  1  2  1  0
  2  3  1  0
  3  4  1  0
  3  5  1  0
  5  6  1  0
  6  7  1  0
  7  8  1  0
  8  9  1  0
  9 10  1  0
  8 11  1  0
 11 12  1  0
 12 13  1  0
 13 14  1  0
 14 15  1  0
 14  6  1  0
 15  7  1  0
 14 11  1  0
 15 11  1  0
  1 16  1  0
  1 17  1  0
  1 18  1  0
  2 19  1  0
  2 20  1  0
  3 21  1  0
  4 22  1  0
  4 23  1  0
  4 24  1  0
  5 25  1  0
  5 26  1  0
  6 27  1  0
  7 28  1  0
  8 29  1  0
  9 30  1  0
  9 31  1  0
 10 32  1  0
 12 33  1  0
 12 34  1  0
 13 35  1  0
 13 36  1  0
 15 37  1  0
M  END
