
     RDKit          2D

110118  0  0  0  0  0  0  0  0999 V2000
   16.0475  -18.4350   -4.7938 C   0  0  0  0  0  0  0  0  0  0  0  0
   16.6101  -17.6192   -3.6678 C   0  0  0  0  0  0  0  0  0  0  0  0
   17.1727  -16.8034   -2.5418 C   0  0  0  0  0  0  0  0  0  0  0  0
   17.7353  -15.9876   -1.4158 C   0  0  0  0  0  0  0  0  0  0  0  0
   18.2979  -15.1717   -0.2898 C   0  0  0  0  0  0  0  0  0  0  0  0
   19.6567  -15.2364   -0.9219 C   0  0  0  0  0  0  0  0  0  0  0  0
   20.2194  -14.4205    0.2042 C   0  0  0  0  0  0  0  0  0  0  0  0
   20.7819  -13.6047    1.3302 C   0  0  0  0  0  0  0  0  0  0  0  0
   21.3446  -12.7889    2.4562 C   0  0  0  0  0  0  0  0  0  0  0  0
   21.9071  -11.9731    3.5822 C   0  0  0  0  0  0  0  0  0  0  0  0
   22.1405  -13.6685    0.6976 N   0  0  0  0  0  0  0  0  0  0  0  0
   23.3072  -12.9945    1.3568 C   0  0  0  0  0  0  0  0  0  0  0  0
   24.4739  -12.3205    2.0160 C   0  0  0  0  0  0  0  0  0  0  0  0
   23.6062  -14.2537    2.1151 S   0  0  0  0  0  0  0  0  0  0  0  0
   24.7657  -14.2993    3.0656 S   0  0  0  0  0  0  0  0  0  0  0  0
   18.8605  -14.3559    0.8363 C   0  0  0  0  0  0  0  0  0  0  0  0
   17.5017  -14.2913    1.4683 S   0  0  0  0  0  5  0  0  0  0  0  0
   16.1430  -14.2266    2.1004 S   0  0  0  0  0  0  0  0  0  0  0  0
   18.5313  -16.8672   -3.1744 C   0  0  0  0  0  0  0  0  0  0  0  0
   18.1663  -17.4204   -4.5200 C   0  0  0  0  0  0  0  0  0  0  0  0
   19.2343  -17.6687   -5.5437 C   0  0  0  0  0  0  0  0  0  0  0  0
   18.3975  -18.1998   -6.6695 C   0  0  0  0  0  0  0  0  0  0  0  0
   17.5607  -18.7309   -7.7955 N   0  0  0  0  0  0  0  0  0  0  0  0
   16.7467  -18.4939   -9.0329 C   0  0  0  0  0  0  0  0  0  0  0  0
   16.9255  -19.8878   -8.5083 C   0  0  0  0  0  0  0  0  0  0  0  0
   16.1325  -20.6528   -9.5261 C   0  0  0  0  0  0  0  0  0  0  0  0
   15.3394  -21.4179  -10.5439 C   0  0  0  0  0  0  0  0  0  0  0  0
   14.5465  -22.1829  -11.5616 C   0  0  0  0  0  0  0  0  0  0  0  0
   13.6914  -22.4639  -12.7616 C   0  0  0  0  0  0  0  0  0  0  0  0
   14.0923  -21.0548  -12.4396 C   0  0  0  0  0  0  0  0  0  0  0  0
   16.4580  -21.9338   -8.8168 C   0  0  0  0  0  0  0  0  0  0  0  0
   16.7835  -23.2148   -8.1075 C   0  0  0  0  0  0  0  0  0  0  0  0
   16.7075  -23.9552   -9.4098 C   0  0  0  0  0  0  0  0  0  0  0  0
   17.0330  -25.2362   -8.7006 C   0  0  0  0  0  0  0  0  0  0  0  0
   17.1091  -24.4958   -7.3982 C   0  0  0  0  0  0  0  0  0  0  0  0
   17.1851  -23.7553   -6.0960 C   0  0  0  0  0  0  0  0  0  0  0  0
   17.3684  -23.4977   -4.6296 C   0  0  0  0  0  0  0  0  0  0  0  0
   17.1234  -22.0183   -4.5925 C   0  0  0  0  0  0  0  0  0  0  0  0
   17.5201  -24.8882   -5.1714 C   0  0  0  0  0  0  0  0  0  0  0  0
   17.8411  -25.6271   -3.9062 C   0  0  0  0  0  0  0  0  0  0  0  0
   17.9171  -24.8866   -2.6039 C   0  0  0  0  0  0  0  0  0  0  0  0
   18.1621  -26.3659   -2.6409 C   0  0  0  0  0  0  0  0  0  0  0  0
   18.0862  -27.1064   -3.9432 C   0  0  0  0  0  0  0  0  0  0  0  0
   19.5992  -17.1154   -4.1980 C   0  0  0  0  0  0  0  0  0  0  0  0
   21.0322  -16.8104   -3.8761 C   0  0  0  0  0  0  0  0  0  0  0  0
   15.4848  -19.2509   -5.9198 H   0  0  0  0  0  0  0  0  0  0  0  0
   14.6888  -18.3711   -4.1614 H   0  0  0  0  0  0  0  0  0  0  0  0
   17.4645  -18.3991   -5.2843 H   0  0  0  0  0  0  0  0  0  0  0  0
   15.2515  -17.5554   -3.0352 H   0  0  0  0  0  0  0  0  0  0  0  0
   17.3857  -17.7893   -4.2493 H   0  0  0  0  0  0  0  0  0  0  0  0
   15.8142  -16.7396   -1.9092 H   0  0  0  0  0  0  0  0  0  0  0  0
   18.6268  -16.0297   -1.8307 H   0  0  0  0  0  0  0  0  0  0  0  0
   16.3766  -15.9233   -0.7835 H   0  0  0  0  0  0  0  0  0  0  0  0
   16.8807  -15.2070    0.2004 H   0  0  0  0  0  0  0  0  0  0  0  0
   21.0155  -15.3010   -1.5539 H   0  0  0  0  0  0  0  0  0  0  0  0
   19.5143  -15.7660   -1.7390 H   0  0  0  0  0  0  0  0  0  0  0  0
   21.4994  -14.5841   -0.5604 H   0  0  0  0  0  0  0  0  0  0  0  0
   19.5021  -13.4419    2.0953 H   0  0  0  0  0  0  0  0  0  0  0  0
   22.1221  -12.6139    2.4395 H   0  0  0  0  0  0  0  0  0  0  0  0
   19.9866  -12.7279    3.0905 H   0  0  0  0  0  0  0  0  0  0  0  0
   22.6309  -11.1709    4.6227 H   0  0  0  0  0  0  0  0  0  0  0  0
   23.2654  -12.0355    2.9490 H   0  0  0  0  0  0  0  0  0  0  0  0
   20.8406  -11.6223    4.5770 H   0  0  0  0  0  0  0  0  0  0  0  0
   22.5088  -14.3580   -0.5827 H   0  0  0  0  0  0  0  0  0  0  0  0
   23.0082  -11.7353    0.5984 H   0  0  0  0  0  0  0  0  0  0  0  0
   25.6406  -11.6465    2.6751 H   0  0  0  0  0  0  0  0  0  0  0  0
   24.1739  -11.0608    1.2589 H   0  0  0  0  0  0  0  0  0  0  0  0
   25.1722  -13.2548    2.9590 H   0  0  0  0  0  0  0  0  0  0  0  0
   25.2047  -15.4669    3.8988 H   0  0  0  0  0  0  0  0  0  0  0  0
   19.2534  -13.5383    2.0309 H   0  0  0  0  0  0  0  0  0  0  0  0
   18.0648  -13.4774    2.5955 H   0  0  0  0  0  0  0  0  0  0  0  0
   16.7772  -15.0912    0.4266 H   0  0  0  0  0  0  0  0  0  0  0  0
   19.6413  -16.3902   -2.2854 H   0  0  0  0  0  0  0  0  0  0  0  0
   16.7334  -17.7255   -4.8420 H   0  0  0  0  0  0  0  0  0  0  0  0
   20.5929  -17.7324   -6.1762 H   0  0  0  0  0  0  0  0  0  0  0  0
   17.2766  -17.9775   -5.6978 H   0  0  0  0  0  0  0  0  0  0  0  0
   19.6296  -18.3586   -7.5104 H   0  0  0  0  0  0  0  0  0  0  0  0
   16.8648  -17.0024   -9.1407 H   0  0  0  0  0  0  0  0  0  0  0  0
   15.8942  -18.5942  -10.2630 H   0  0  0  0  0  0  0  0  0  0  0  0
   17.4647  -20.8885   -7.5297 H   0  0  0  0  0  0  0  0  0  0  0  0
   15.7127  -19.4747  -10.3541 H   0  0  0  0  0  0  0  0  0  0  0  0
   15.6852  -22.7915  -10.0502 H   0  0  0  0  0  0  0  0  0  0  0  0
   14.9937  -20.0443  -11.0375 H   0  0  0  0  0  0  0  0  0  0  0  0
   14.7253  -23.5768  -11.0371 H   0  0  0  0  0  0  0  0  0  0  0  0
   13.5732  -23.9554  -12.6538 H   0  0  0  0  0  0  0  0  0  0  0  0
   12.8773  -22.2269  -13.9990 H   0  0  0  0  0  0  0  0  0  0  0  0
   13.4175  -20.3283  -13.5652 H   0  0  0  0  0  0  0  0  0  0  0  0
   14.6529  -19.7918  -11.8562 H   0  0  0  0  0  0  0  0  0  0  0  0
   15.8826  -22.8630   -9.8442 H   0  0  0  0  0  0  0  0  0  0  0  0
   17.1128  -21.3169   -7.6165 H   0  0  0  0  0  0  0  0  0  0  0  0
   16.7786  -22.1864   -7.0155 H   0  0  0  0  0  0  0  0  0  0  0  0
   16.6314  -24.6957  -10.7121 H   0  0  0  0  0  0  0  0  0  0  0  0
   17.0418  -25.0190   -8.4065 H   0  0  0  0  0  0  0  0  0  0  0  0
   17.3586  -26.5172   -7.9912 H   0  0  0  0  0  0  0  0  0  0  0  0
   16.9570  -25.9766  -10.0028 H   0  0  0  0  0  0  0  0  0  0  0  0
   17.4229  -25.8574   -6.8530 H   0  0  0  0  0  0  0  0  0  0  0  0
   16.8766  -22.3655   -6.5681 H   0  0  0  0  0  0  0  0  0  0  0  0
   17.6101  -23.5742   -3.1512 H   0  0  0  0  0  0  0  0  0  0  0  0
   16.8785  -20.5388   -4.5556 H   0  0  0  0  0  0  0  0  0  0  0  0
   17.3530  -22.0174   -3.1102 H   0  0  0  0  0  0  0  0  0  0  0  0
   16.8414  -21.6611   -6.0219 H   0  0  0  0  0  0  0  0  0  0  0  0
   17.6007  -26.1294   -6.0099 H   0  0  0  0  0  0  0  0  0  0  0  0
   17.6084  -23.4967   -3.0761 H   0  0  0  0  0  0  0  0  0  0  0  0
   18.1002  -24.6288   -1.1376 H   0  0  0  0  0  0  0  0  0  0  0  0
   18.4831  -27.1049   -1.3756 H   0  0  0  0  0  0  0  0  0  0  0  0
   18.3948  -28.4964   -3.4710 H   0  0  0  0  0  0  0  0  0  0  0  0
   17.9386  -27.5398   -5.3717 H   0  0  0  0  0  0  0  0  0  0  0  0
   22.4651  -16.5053   -3.5540 H   0  0  0  0  0  0  0  0  0  0  0  0
   21.4381  -17.2733   -5.2439 H   0  0  0  0  0  0  0  0  0  0  0  0
   20.6262  -16.3474   -2.5082 H   0  0  0  0  0  0  0  0  0  0  0  0
  1  2  1  0
  2  3  1  0
  3  4  1  0
  4  5  1  0
  5  6  1  0
  6  7  1  0
  7  8  1  0
  8  9  1  0
  9 10  1  0
  8 11  1  0
 11 12  1  0
 12 13  1  0
 12 14  1  0
 14 15  1  0
  7 16  1  0
 16 17  1  0
 17 18  2  0
  3 19  1  0
 19 20  1  0
 20 21  1  0
 21 22  1  0
 22 23  1  0
 23 24  1  0
 24 25  1  0
 25 26  1  0
 26 27  1  0
 27 28  1  0
 28 29  1  0
 29 30  1  0
 26 31  1  0
 31 32  1  0
 32 33  1  0
 33 34  1  0
 34 35  1  0
 35 36  1  0
 36 37  1  0
 37 38  1  0
 37 39  1  0
 39 40  1  0
 40 41  1  0
 41 42  1  0
 42 43  1  0
 21 44  1  0
 44 45  1  0
 16  5  1  0
 44 19  1  0
 44 20  1  0
 25 23  1  0
 30 28  1  0
 35 32  1  0
 39 36  1  0
 42 40  1  0
 43 40  1  0
  1 46  1  0
  1 47  1  0
  1 48  1  0
  2 49  1  0
  2 50  1  0
  3 51  1  0
  4 52  1  0
  4 53  1  0
  5 54  1  0
  6 55  1  0
  6 56  1  0
  7 57  1  0
  8 58  1  0
  9 59  1  0
  9 60  1  0
 10 61  1  0
 10 62  1  0
 10 63  1  0
 11 64  1  0
 12 65  1  0
 13 66  1  0
 13 67  1  0
 13 68  1  0
 15 69  1  0
 16 70  1  0
 17 71  1  0
 17 72  1  0
 19 73  1  0
 20 74  1  0
 21 75  1  0
 22 76  1  0
 22 77  1  0
 24 78  1  0
 24 79  1  0
 25 80  1  0
 26 81  1  0
 27 82  1  0
 27 83  1  0
 28 84  1  0
 29 85  1  0
 29 86  1  0
 30 87  1  0
 30 88  1  0
 31 89  1  0
 31 90  1  0
 32 91  1  0
 33 92  1  0
 33 93  1  0
 34 94  1  0
 34 95  1  0
 35 96  1  0
 36 97  1  0
 37 98  1  0
 38 99  1  0
 38100  1  0
 38101  1  0
 39102  1  0
 41103  1  0
 41104  1  0
 42105  1  0
 43106  1  0
 43107  1  0
 45108  1  0
 45109  1  0
 45110  1  0
M  RAD  1  17   2
M  END
