
     RDKit          2D

 85 92  0  0  0  0  0  0  0  0999 V2000
   24.8192  -15.7306   -3.5374 C   0  0  0  0  0  0  0  0  0  0  0  0
   24.2978  -17.1369   -3.5150 C   0  0  0  0  0  0  0  0  0  0  0  0
   23.2128  -17.5498   -4.4649 C   0  0  0  0  0  0  0  0  0  0  0  0
   22.1279  -17.9628   -5.4149 C   0  0  0  0  0  0  0  0  0  0  0  0
   21.0429  -18.3757   -6.3649 C   0  0  0  0  0  0  0  0  0  0  0  0
   20.0074  -17.9756   -5.3561 C   0  0  0  0  0  0  0  0  0  0  0  0
   21.0924  -17.5626   -4.4061 C   0  0  0  0  0  0  0  0  0  0  0  0
   20.0568  -17.1625   -3.3974 C   0  0  0  0  0  0  0  0  0  0  0  0
   21.1418  -16.7496   -2.4474 C   0  0  0  0  0  0  0  0  0  0  0  0
   22.2268  -16.3367   -1.4975 C   0  0  0  0  0  0  0  0  0  0  0  0
   23.3117  -15.9238   -0.5475 C   0  0  0  0  0  0  0  0  0  0  0  0
   19.0214  -16.7624   -2.3886 C   0  0  0  0  0  0  0  0  0  0  0  0
   17.9858  -16.3623   -1.3799 C   0  0  0  0  0  0  0  0  0  0  0  0
   16.9503  -15.9622   -0.3711 C   0  0  0  0  0  0  0  0  0  0  0  0
   16.9009  -16.7752   -2.3297 C   0  0  0  0  0  0  0  0  0  0  0  0
   15.8159  -17.1881   -3.2797 P   0  0  0  0  0  0  0  0  0  0  0  0
   14.4047  -17.3289   -2.7911 C   0  0  0  0  0  0  0  0  0  0  0  0
   12.9936  -17.4697   -2.3024 C   0  0  0  0  0  0  0  0  0  0  0  0
   11.5824  -17.6104   -1.8138 C   0  0  0  0  0  0  0  0  0  0  0  0
   10.1712  -17.7512   -1.3252 C   0  0  0  0  0  0  0  0  0  0  0  0
   13.4317  -17.0744   -0.9233 C   0  0  0  0  0  0  0  0  0  0  0  0
   14.6213  -16.4605    0.8175 C   0  0  0  0  0  0  0  0  0  0  0  0
   14.2203  -16.2067    2.2405 C   0  0  0  0  0  0  0  0  0  0  0  0
   15.6763  -15.9002    2.4307 C   0  0  0  0  0  0  0  0  0  0  0  0
   17.1322  -15.5936    2.6211 C   0  0  0  0  0  0  0  0  0  0  0  0
   18.5882  -15.2871    2.8114 C   0  0  0  0  0  0  0  0  0  0  0  0
   16.8996  -15.4006    4.0903 C   0  0  0  0  0  0  0  0  0  0  0  0
   12.7442  -16.4468    2.3559 C   0  0  0  0  0  0  0  0  0  0  0  0
   12.2329  -16.8490    1.0043 C   0  0  0  0  0  0  0  0  0  0  0  0
   10.8607  -17.2086    0.5166 C   0  0  0  0  0  0  0  0  0  0  0  0
   12.0209  -17.2171   -0.4343 C   0  0  0  0  0  0  0  0  0  0  0  0
   13.3930  -16.8575    0.0535 C   0  0  0  0  0  0  0  0  0  0  0  0
   17.9364  -17.1753   -3.3386 C   0  0  0  0  0  0  0  0  0  0  0  0
   18.9719  -17.5754   -4.3473 C   0  0  0  0  0  0  0  0  0  0  0  0
   25.9042  -15.3179   -2.5874 H   0  0  0  0  0  0  0  0  0  0  0  0
   24.2555  -14.7372   -4.5096 H   0  0  0  0  0  0  0  0  0  0  0  0
   25.0691  -17.8468   -2.4421 H   0  0  0  0  0  0  0  0  0  0  0  0
   22.6625  -17.3370   -3.9290 H   0  0  0  0  0  0  0  0  0  0  0  0
   24.2484  -17.9504   -5.4736 H   0  0  0  0  0  0  0  0  0  0  0  0
   23.1634  -18.3629   -6.4237 H   0  0  0  0  0  0  0  0  0  0  0  0
   22.0785  -18.7758   -7.3736 H   0  0  0  0  0  0  0  0  0  0  0  0
   19.9580  -18.7886   -7.3148 H   0  0  0  0  0  0  0  0  0  0  0  0
   18.9225  -18.3885   -6.3060 H   0  0  0  0  0  0  0  0  0  0  0  0
   21.6690  -17.3432   -3.9013 H   0  0  0  0  0  0  0  0  0  0  0  0
   20.3278  -15.7704   -1.6547 H   0  0  0  0  0  0  0  0  0  0  0  0
   22.0952  -17.6855   -3.1295 H   0  0  0  0  0  0  0  0  0  0  0  0
   21.2736  -15.4002   -0.8159 H   0  0  0  0  0  0  0  0  0  0  0  0
   23.3050  -17.2158   -2.0581 H   0  0  0  0  0  0  0  0  0  0  0  0
   24.3967  -15.5108    0.4024 H   0  0  0  0  0  0  0  0  0  0  0  0
   22.3590  -14.9862    0.1331 H   0  0  0  0  0  0  0  0  0  0  0  0
   24.3896  -16.8041   -1.1073 H   0  0  0  0  0  0  0  0  0  0  0  0
   19.9719  -16.3038   -1.3228 H   0  0  0  0  0  0  0  0  0  0  0  0
   19.0708  -15.9494   -0.4299 H   0  0  0  0  0  0  0  0  0  0  0  0
   15.9148  -15.5620    0.6377 H   0  0  0  0  0  0  0  0  0  0  0  0
   18.1534  -15.6012    0.4489 H   0  0  0  0  0  0  0  0  0  0  0  0
   15.7472  -16.3232   -1.1910 H   0  0  0  0  0  0  0  0  0  0  0  0
   15.7408  -16.4284   -1.4444 H   0  0  0  0  0  0  0  0  0  0  0  0
   15.9640  -17.4972   -4.7400 H   0  0  0  0  0  0  0  0  0  0  0  0
   14.6673  -16.9524   -1.3630 H   0  0  0  0  0  0  0  0  0  0  0  0
   13.9669  -17.7255   -4.1698 H   0  0  0  0  0  0  0  0  0  0  0  0
   12.5555  -17.8649   -3.6815 H   0  0  0  0  0  0  0  0  0  0  0  0
   10.9616  -17.9372   -3.1397 H   0  0  0  0  0  0  0  0  0  0  0  0
   11.3056  -17.9029   -3.2587 H   0  0  0  0  0  0  0  0  0  0  0  0
    8.7601  -17.8919   -0.8365 H   0  0  0  0  0  0  0  0  0  0  0  0
    9.7331  -18.1465   -2.7043 H   0  0  0  0  0  0  0  0  0  0  0  0
   10.2548  -17.4017    0.1312 H   0  0  0  0  0  0  0  0  0  0  0  0
   11.9568  -17.3085   -0.7825 H   0  0  0  0  0  0  0  0  0  0  0  0
   16.0073  -16.3387    0.2569 H   0  0  0  0  0  0  0  0  0  0  0  0
   14.1237  -15.8889    3.7031 H   0  0  0  0  0  0  0  0  0  0  0  0
   15.2505  -15.6523    3.8475 H   0  0  0  0  0  0  0  0  0  0  0  0
   15.9265  -16.1876    0.9800 H   0  0  0  0  0  0  0  0  0  0  0  0
   17.5407  -15.7478    1.1860 H   0  0  0  0  0  0  0  0  0  0  0  0
   20.0442  -14.9806    3.0017 H   0  0  0  0  0  0  0  0  0  0  0  0
   18.5175  -14.9650    4.2747 H   0  0  0  0  0  0  0  0  0  0  0  0
   18.8382  -15.5740    1.3604 H   0  0  0  0  0  0  0  0  0  0  0  0
   16.6669  -15.2077    5.5595 H   0  0  0  0  0  0  0  0  0  0  0  0
   18.3160  -15.0717    4.4581 H   0  0  0  0  0  0  0  0  0  0  0  0
   15.4264  -15.6826    4.0807 H   0  0  0  0  0  0  0  0  0  0  0  0
   12.9562  -16.0788    3.7945 H   0  0  0  0  0  0  0  0  0  0  0  0
   11.3124  -16.6100    2.7721 H   0  0  0  0  0  0  0  0  0  0  0  0
   10.0833  -17.0570    1.7904 H   0  0  0  0  0  0  0  0  0  0  0  0
    9.7585  -17.6209   -0.4137 H   0  0  0  0  0  0  0  0  0  0  0  0
   13.5665  -17.1606   -1.4053 H   0  0  0  0  0  0  0  0  0  0  0  0
   16.9858  -17.6339   -4.4043 H   0  0  0  0  0  0  0  0  0  0  0  0
   17.8869  -17.9884   -5.2972 H   0  0  0  0  0  0  0  0  0  0  0  0
  1  2  2  3
  2  3  1  0
  3  4  1  0
  4  5  1  0
  5  6  1  0
  6  7  1  0
  7  8  1  0
  8  9  1  0
  9 10  1  0
 10 11  1  0
  8 12  1  0
 12 13  1  0
 13 14  1  0
 13 15  1  0
 15 16  1  0
 16 17  1  0
 17 18  1  0
 18 19  1  0
 19 20  1  0
 18 21  1  0
 21 22  1  0
 22 23  1  0
 23 24  1  0
 24 25  1  0
 25 26  1  0
 25 27  1  0
 23 28  1  0
 28 29  1  0
 29 30  1  0
 30 31  1  0
 31 32  1  0
 15 33  1  0
 33 34  1  0
  7  4  1  0
 34  8  1  0
 34  6  1  0
 33 12  1  0
 31 21  1  0
 32 22  1  0
 31 29  1  0
 32 29  1  0
  1 35  1  0
  1 36  1  0
  2 37  1  0
  3 38  1  0
  3 39  1  0
  4 40  1  0
  5 41  1  0
  5 42  1  0
  6 43  1  0
  7 44  1  0
  9 45  1  0
  9 46  1  0
 10 47  1  0
 10 48  1  0
 11 49  1  0
 11 50  1  0
 11 51  1  0
 12 52  1  0
 13 53  1  0
 14 54  1  0
 14 55  1  0
 14 56  1  0
 15 57  1  0
 16 58  1  0
 17 59  1  0
 17 60  1  0
 18 61  1  0
 19 62  1  0
 19 63  1  0
 20 64  1  0
 20 65  1  0
 20 66  1  0
 21 67  1  0
 22 68  1  0
 23 69  1  0
 24 70  1  0
 24 71  1  0
 25 72  1  0
 26 73  1  0
 26 74  1  0
 26 75  1  0
 27 76  1  0
 27 77  1  0
 27 78  1  0
 28 79  1  0
 28 80  1  0
 30 81  1  0
 30 82  1  0
 32 83  1  0
 33 84  1  0
 34 85  1  0
M  END
