
     RDKit          2D

  7  7  0  0  0  0  0  0  0  0999 V2000
    3.8343   28.0411    6.6985 O   0  0  0  0  0  0  0  0  0  0  0  0
    3.9829   26.8691    5.7743 P   0  0  0  0  0  0  0  0  0  0  0  0
    3.3970   25.6645    5.0994 O   0  0  0  0  0  0  0  0  0  0  0  0
    4.8263   26.0437    4.8483 P   0  0  0  0  0  0  0  0  0  0  0  0
    6.1385   25.7861    4.1688 O   0  0  0  0  0  0  0  0  0  0  0  0
    4.1320   27.8859    8.1604 H   0  0  0  0  0  0  0  0  0  0  0  0
    6.2871   24.6141    3.2445 H   0  0  0  0  0  0  0  0  0  0  0  0
  1  2  1  0
  2  3  1  0
  3  4  1  0
  4  5  1  0
  4  2  1  0
  1  6  1  0
  5  7  1  0
M  END
