
     RDKit          2D

 36 37  0  0  0  0  0  0  0  0999 V2000
   16.6502  -26.3776   -5.8307 C   0  0  0  0  0  0  0  0  0  0  0  0
   16.1071  -26.0517   -4.4710 C   0  0  0  0  0  0  0  0  0  0  0  0
   15.5639  -25.7257   -3.1112 C   0  0  0  0  0  0  0  0  0  0  0  0
   15.0208  -25.3998   -1.7516 O   0  0  0  0  0  0  0  0  0  0  0  0
   15.7234  -24.6837   -4.9522 C   0  0  0  0  0  0  0  0  0  0  0  0
   16.2727  -25.0072   -6.3099 O   0  0  0  0  0  0  0  0  0  0  0  0
   15.3398  -23.3157   -5.4333 C   0  0  0  0  0  0  0  0  0  0  0  0
   14.8262  -22.9784   -4.0648 O   0  0  0  0  0  0  0  0  0  0  0  0
   14.9562  -21.9478   -5.9144 C   0  0  0  0  0  0  0  0  0  0  0  0
   14.3463  -21.3925   -4.6615 Sb  0  0  0  0  0  3  0  0  0  0  0  0
   14.4070  -20.5519   -5.9023 C   0  0  0  0  0  0  0  0  0  0  0  0
   14.6929  -20.1473   -7.3182 C   0  0  0  0  0  0  0  0  0  0  0  0
   15.3624  -21.1106   -8.2529 C   0  0  0  0  0  0  0  0  0  0  0  0
   15.6482  -20.7060   -9.6687 C   0  0  0  0  0  0  0  0  0  0  0  0
   15.2646  -19.3380  -10.1498 C   0  0  0  0  0  0  0  0  0  0  0  0
   14.5951  -18.3747   -9.2151 C   0  0  0  0  0  0  0  0  0  0  0  0
   14.3092  -18.7793   -7.7993 C   0  0  0  0  0  0  0  0  0  0  0  0
   17.2355  -26.8680   -7.1218 H   0  0  0  0  0  0  0  0  0  0  0  0
   17.0301  -27.7469   -5.3507 H   0  0  0  0  0  0  0  0  0  0  0  0
   16.5241  -25.7134   -6.2530 H   0  0  0  0  0  0  0  0  0  0  0  0
   16.4907  -27.4196   -3.9899 H   0  0  0  0  0  0  0  0  0  0  0  0
   15.9425  -27.0956   -2.6317 H   0  0  0  0  0  0  0  0  0  0  0  0
   15.0652  -24.3176   -3.2476 H   0  0  0  0  0  0  0  0  0  0  0  0
   15.0783  -26.4228   -0.6560 H   0  0  0  0  0  0  0  0  0  0  0  0
   15.1741  -24.3601   -3.5943 H   0  0  0  0  0  0  0  0  0  0  0  0
   16.9420  -26.1191   -7.0622 H   0  0  0  0  0  0  0  0  0  0  0  0
   15.8533  -23.6530   -6.8017 H   0  0  0  0  0  0  0  0  0  0  0  0
   14.7459  -23.7280   -2.7681 H   0  0  0  0  0  0  0  0  0  0  0  0
   15.4869  -22.1983   -7.2948 H   0  0  0  0  0  0  0  0  0  0  0  0
   13.9592  -21.5572   -3.2216 H   0  0  0  0  0  0  0  0  0  0  0  0
   13.7586  -19.2966   -5.3987 H   0  0  0  0  0  0  0  0  0  0  0  0
   15.7460  -22.4786   -7.7718 H   0  0  0  0  0  0  0  0  0  0  0  0
   16.3178  -21.6693  -10.6035 H   0  0  0  0  0  0  0  0  0  0  0  0
   15.5504  -18.9334  -11.5657 H   0  0  0  0  0  0  0  0  0  0  0  0
   14.2114  -17.0067   -9.6962 H   0  0  0  0  0  0  0  0  0  0  0  0
   13.6378  -17.6984   -7.0050 H   0  0  0  0  0  0  0  0  0  0  0  0
  1  2  1  0
  2  3  1  0
  3  4  1  0
  2  5  1  0
  5  6  1  0
  5  7  1  0
  7  8  1  0
  7  9  1  0
  9 10  1  0
 10 11  1  0
 11 12  1  0
 12 13  2  0
 13 14  1  0
 14 15  2  0
 15 16  1  0
 16 17  2  0
 11  9  1  0
 17 12  1  0
  1 18  1  0
  1 19  1  0
  1 20  1  0
  2 21  1  0
  3 22  1  0
  3 23  1  0
  4 24  1  0
  5 25  1  0
  6 26  1  0
  7 27  1  0
  8 28  1  0
  9 29  1  0
 10 30  1  0
 11 31  1  0
 13 32  1  0
 14 33  1  0
 15 34  1  0
 16 35  1  0
 17 36  1  0
M  END
