
     RDKit          2D

 36 37  0  0  0  0  0  0  0  0999 V2000
   15.6247  -18.7055   -4.5368 C   0  0  0  0  0  0  0  0  0  0  0  0
   14.2613  -19.2286   -4.1939 C   0  0  0  0  0  0  0  0  0  0  0  0
   12.8978  -19.7516   -3.8511 C   0  0  0  0  0  0  0  0  0  0  0  0
   11.5344  -20.2747   -3.5082 C   0  0  0  0  0  0  0  0  0  0  0  0
   10.1710  -20.7977   -3.1653 Cl  0  0  0  0  0  0  0  0  0  0  0  0
   13.8293  -19.0358   -5.6174 C   0  0  0  0  0  0  0  0  0  0  0  0
   13.3973  -18.8430   -7.0409 C   0  0  0  0  0  0  0  0  0  0  0  0
   11.9182  -18.6886   -6.8456 O   0  0  0  0  0  0  0  0  0  0  0  0
   12.5038  -18.6198   -8.2248 C   0  0  0  0  0  0  0  0  0  0  0  0
   13.5226  -18.6297   -9.3257 C   0  0  0  0  0  0  0  0  0  0  0  0
   14.5415  -18.6397  -10.4264 C   0  0  0  0  0  0  0  0  0  0  0  0
   13.4546  -18.4106  -11.4345 C   0  0  0  0  0  0  0  0  0  0  0  0
   14.4735  -18.4205  -12.5354 C   0  0  0  0  0  0  0  0  0  0  0  0
   15.4924  -18.4305  -13.6362 N   0  0  0  0  0  0  0  0  0  0  0  0
   15.5604  -18.6496  -11.5273 N   0  0  0  0  0  0  0  0  0  0  0  0
   16.9881  -18.1825   -4.8797 H   0  0  0  0  0  0  0  0  0  0  0  0
   15.7741  -18.1795   -3.1401 H   0  0  0  0  0  0  0  0  0  0  0  0
   15.6352  -18.9763   -5.3801 H   0  0  0  0  0  0  0  0  0  0  0  0
   14.6932  -19.4214   -2.7704 H   0  0  0  0  0  0  0  0  0  0  0  0
   12.8660  -20.3841   -4.4702 H   0  0  0  0  0  0  0  0  0  0  0  0
   12.7847  -18.7366   -2.7525 H   0  0  0  0  0  0  0  0  0  0  0  0
   11.3857  -20.8022   -4.9044 H   0  0  0  0  0  0  0  0  0  0  0  0
   11.6832  -19.7470   -2.1120 H   0  0  0  0  0  0  0  0  0  0  0  0
   12.9623  -18.9523   -5.4568 H   0  0  0  0  0  0  0  0  0  0  0  0
   14.6342  -19.0915   -5.9829 H   0  0  0  0  0  0  0  0  0  0  0  0
   14.6586  -18.9443   -7.5117 H   0  0  0  0  0  0  0  0  0  0  0  0
   11.2565  -18.3932   -9.0265 H   0  0  0  0  0  0  0  0  0  0  0  0
   12.7334  -18.4800   -9.8941 H   0  0  0  0  0  0  0  0  0  0  0  0
   14.6054  -18.8352   -8.5460 H   0  0  0  0  0  0  0  0  0  0  0  0
   15.6285  -18.8688   -9.4185 H   0  0  0  0  0  0  0  0  0  0  0  0
   12.3677  -18.1815  -12.4426 H   0  0  0  0  0  0  0  0  0  0  0  0
   12.7042  -18.3858  -10.7983 H   0  0  0  0  0  0  0  0  0  0  0  0
   13.3865  -18.1914  -13.5434 H   0  0  0  0  0  0  0  0  0  0  0  0
   15.0602  -18.2387  -15.0598 H   0  0  0  0  0  0  0  0  0  0  0  0
   16.9432  -18.6322  -13.3135 H   0  0  0  0  0  0  0  0  0  0  0  0
   17.0494  -18.8186  -11.5929 H   0  0  0  0  0  0  0  0  0  0  0  0
  1  2  1  0
  2  3  1  0
  3  4  1  0
  4  5  1  0
  2  6  1  0
  6  7  1  0
  7  8  1  0
  8  9  1  0
  9 10  1  0
 10 11  1  0
 11 12  1  0
 12 13  1  0
 13 14  1  0
 13 15  1  0
  9  7  1  0
 15 11  1  0
  1 16  1  0
  1 17  1  0
  1 18  1  0
  2 19  1  0
  3 20  1  0
  3 21  1  0
  4 22  1  0
  4 23  1  0
  6 24  1  0
  6 25  1  0
  7 26  1  0
  9 27  1  0
 10 28  1  0
 10 29  1  0
 11 30  1  0
 12 31  1  0
 12 32  1  0
 13 33  1  0
 14 34  1  0
 14 35  1  0
 15 36  1  0
M  END
