
     RDKit          2D

 25 28  0  0  0  0  0  0  0  0999 V2000
   16.4013  -23.1959  -11.7124 N   0  0  0  0  0  0  0  0  0  0  0  0
   15.8726  -21.7954  -11.8065 C   0  0  0  0  0  0  0  0  0  0  0  0
   16.5781  -21.8276  -13.1298 O   0  0  0  0  0  0  0  0  0  0  0  0
   15.8440  -20.5918  -12.7012 C   0  0  0  0  0  0  0  0  0  0  0  0
   15.2360  -19.2230  -12.6186 C   0  0  0  0  0  0  0  0  0  0  0  0
   14.4047  -18.4908  -11.6072 C   0  0  0  0  0  0  0  0  0  0  0  0
   13.8372  -18.8243  -10.2593 C   0  0  0  0  0  0  0  0  0  0  0  0
   13.0417  -18.4286   -9.0508 O   0  0  0  0  0  0  0  0  0  0  0  0
   13.8659  -20.0279   -9.3646 C   0  0  0  0  0  0  0  0  0  0  0  0
   14.4738  -21.3967   -9.4471 C   0  0  0  0  0  0  0  0  0  0  0  0
   13.6783  -21.0010   -8.2385 C   0  0  0  0  0  0  0  0  0  0  0  0
   15.3050  -22.1288  -10.4586 C   0  0  0  0  0  0  0  0  0  0  0  0
   17.2217  -23.7647  -12.8320 H   0  0  0  0  0  0  0  0  0  0  0  0
   16.2067  -24.1602  -10.5799 H   0  0  0  0  0  0  0  0  0  0  0  0
   16.3273  -20.0826  -14.0267 H   0  0  0  0  0  0  0  0  0  0  0  0
   15.0920  -17.9292  -13.3639 H   0  0  0  0  0  0  0  0  0  0  0  0
   15.9415  -19.2552  -13.9420 H   0  0  0  0  0  0  0  0  0  0  0  0
   13.7237  -17.1818  -11.3378 H   0  0  0  0  0  0  0  0  0  0  0  0
   14.4921  -17.4008  -12.6339 H   0  0  0  0  0  0  0  0  0  0  0  0
   13.3141  -17.4225  -10.3651 H   0  0  0  0  0  0  0  0  0  0  0  0
   12.4337  -17.0599   -8.9681 H   0  0  0  0  0  0  0  0  0  0  0  0
   13.0380  -19.1449   -8.4786 H   0  0  0  0  0  0  0  0  0  0  0  0
   14.6107  -22.6855   -8.6921 H   0  0  0  0  0  0  0  0  0  0  0  0
   13.1108  -21.3344   -6.8907 H   0  0  0  0  0  0  0  0  0  0  0  0
   15.5547  -23.4842   -9.8667 H   0  0  0  0  0  0  0  0  0  0  0  0
  1  2  1  0
  2  3  1  0
  3  4  1  0
  4  5  1  0
  5  6  1  0
  6  7  1  0
  7  8  1  0
  7  9  1  0
  9 10  1  0
 10 11  1  0
 11 12  1  0
  4  2  1  0
 11  9  1  0
 12  2  1  0
 12 10  1  0
  1 13  1  0
  1 14  1  0
  4 15  1  0
  5 16  1  0
  5 17  1  0
  6 18  1  0
  6 19  1  0
  7 20  1  0
  8 21  1  0
  9 22  1  0
 10 23  1  0
 11 24  1  0
 12 25  1  0
M  END
