
     RDKit          2D

 69 75  0  0  0  0  0  0  0  0999 V2000
    0.8089   20.4097   13.5693 C   0  0  0  0  0  0  0  0  0  0  0  0
    1.9388   21.3499   13.8684 C   0  0  0  0  0  0  0  0  0  0  0  0
    3.0687   22.2900   14.1676 C   0  0  0  0  0  0  0  0  0  0  0  0
    4.1986   23.2302   14.4667 C   0  0  0  0  0  0  0  0  0  0  0  0
    5.3285   24.1703   14.7658 C   0  0  0  0  0  0  0  0  0  0  0  0
    2.1160   23.4479   14.1268 C   0  0  0  0  0  0  0  0  0  0  0  0
    1.1633   24.6058   14.0861 C   0  0  0  0  0  0  0  0  0  0  0  0
    0.2107   25.7638   14.0454 O   0  0  0  0  0  0  0  0  0  0  0  0
   -0.6516   25.9834   12.8379 C   0  0  0  0  0  0  0  0  0  0  0  0
   -0.8356   25.2830   11.5242 N   0  0  0  0  0  0  0  0  0  0  0  0
   -1.8711   26.2941   11.1301 C   0  0  0  0  0  0  0  0  0  0  0  0
   -2.0550   25.5936    9.8165 N   0  0  0  0  0  0  0  0  0  0  0  0
   -2.9067   27.3051   10.7360 C   0  0  0  0  0  0  0  0  0  0  0  0
   -3.8604   28.0864    9.8815 N   0  0  0  0  0  0  0  0  0  0  0  0
   -3.0305   26.9946    9.2737 C   0  0  0  0  0  0  0  0  0  0  0  0
   -3.4992   27.0727    7.8509 C   0  0  0  0  0  0  0  0  0  0  0  0
   -3.7652   26.9157    6.3830 N   0  0  0  0  0  0  0  0  0  0  0  0
   -4.8007   27.9267    5.9889 N   0  0  0  0  0  0  0  0  0  0  0  0
   -5.1747   28.7086    7.2132 C   0  0  0  0  0  0  0  0  0  0  0  0
   -4.3703   28.1808    8.3639 C   0  0  0  0  0  0  0  0  0  0  0  0
   -5.1054   29.2241    9.1520 C   0  0  0  0  0  0  0  0  0  0  0  0
   -4.5126   28.9906   10.5099 C   0  0  0  0  0  0  0  0  0  0  0  0
   -4.9532   29.8270   11.6746 O   0  0  0  0  0  0  0  0  0  0  0  0
   -6.0465   30.3486    9.4684 C   0  0  0  0  0  0  0  0  0  0  0  0
   -5.9535   29.8200    8.0678 C   0  0  0  0  0  0  0  0  0  0  0  0
   -1.6872   26.9945   12.4437 C   0  0  0  0  0  0  0  0  0  0  0  0
   -1.5032   27.6949   13.7573 C   0  0  0  0  0  0  0  0  0  0  0  0
    1.1130   22.5973   13.4055 N   0  0  0  0  0  0  0  0  0  0  0  0
   -0.0456   21.6452   13.4380 C   0  0  0  0  0  0  0  0  0  0  0  0
   -1.0486   20.7946   12.7166 N   0  0  0  0  0  2  0  0  0  0  0  0
   -0.4687   21.2255   11.4021 C   0  0  0  0  0  0  0  0  0  0  0  0
    0.5351   22.0241   10.6243 N   0  0  0  0  0  2  0  0  0  0  0  0
    0.5343   22.0762   12.1235 C   0  0  0  0  0  0  0  0  0  0  0  0
   -0.0520   19.2587   13.1405 H   0  0  0  0  0  0  0  0  0  0  0  0
    1.7820   19.4225   12.9963 H   0  0  0  0  0  0  0  0  0  0  0  0
    0.0704   20.6384   13.7635 H   0  0  0  0  0  0  0  0  0  0  0  0
    0.8165   21.8450   14.7317 H   0  0  0  0  0  0  0  0  0  0  0  0
    2.8137   20.6051   12.9042 H   0  0  0  0  0  0  0  0  0  0  0  0
    4.0214   21.1321   14.2083 H   0  0  0  0  0  0  0  0  0  0  0  0
    3.2247   24.2200   15.0340 H   0  0  0  0  0  0  0  0  0  0  0  0
    5.3029   22.3623   13.9401 H   0  0  0  0  0  0  0  0  0  0  0  0
    6.4584   25.1105   15.0650 H   0  0  0  0  0  0  0  0  0  0  0  0
    6.0742   23.0587   15.4427 H   0  0  0  0  0  0  0  0  0  0  0  0
    4.5827   25.2819   14.0890 H   0  0  0  0  0  0  0  0  0  0  0  0
    2.9954   24.4334   14.8379 H   0  0  0  0  0  0  0  0  0  0  0  0
    1.9912   25.3230   15.1110 H   0  0  0  0  0  0  0  0  0  0  0  0
    0.3355   23.8887   13.0613 H   0  0  0  0  0  0  0  0  0  0  0  0
   -1.2515   24.3667    9.5019 H   0  0  0  0  0  0  0  0  0  0  0  0
   -3.0425   26.1200    8.8176 H   0  0  0  0  0  0  0  0  0  0  0  0
   -3.2638   28.0728   11.9742 H   0  0  0  0  0  0  0  0  0  0  0  0
   -4.8294   29.2108   10.0972 H   0  0  0  0  0  0  0  0  0  0  0  0
   -2.1403   25.8804    8.8089 H   0  0  0  0  0  0  0  0  0  0  0  0
   -2.5300   25.9482    7.6353 H   0  0  0  0  0  0  0  0  0  0  0  0
   -3.1105   25.9221    5.4697 H   0  0  0  0  0  0  0  0  0  0  0  0
   -5.3635   28.1218    4.6122 H   0  0  0  0  0  0  0  0  0  0  0  0
   -6.0976   29.4315    6.2774 H   0  0  0  0  0  0  0  0  0  0  0  0
   -5.9350   29.7661    7.9574 H   0  0  0  0  0  0  0  0  0  0  0  0
   -3.9344   28.1420    9.7987 H   0  0  0  0  0  0  0  0  0  0  0  0
   -3.4792   27.9207   10.7032 H   0  0  0  0  0  0  0  0  0  0  0  0
   -5.7804   30.5056   10.9363 H   0  0  0  0  0  0  0  0  0  0  0  0
   -7.0798   31.4185    9.2751 H   0  0  0  0  0  0  0  0  0  0  0  0
   -6.9546   30.7063    7.3880 H   0  0  0  0  0  0  0  0  0  0  0  0
   -5.7533   29.1906    6.7210 H   0  0  0  0  0  0  0  0  0  0  0  0
   -2.6926   28.0834   12.2127 H   0  0  0  0  0  0  0  0  0  0  0  0
   -1.3194   28.3954   15.0709 H   0  0  0  0  0  0  0  0  0  0  0  0
   -2.3506   28.8324   13.2694 H   0  0  0  0  0  0  0  0  0  0  0  0
   -0.6559   26.5574   14.2452 H   0  0  0  0  0  0  0  0  0  0  0  0
   -0.3462   21.4491   14.8944 H   0  0  0  0  0  0  0  0  0  0  0  0
   -1.2874   20.5154   10.3651 H   0  0  0  0  0  0  0  0  0  0  0  0
  1  2  1  0
  2  3  1  0
  3  4  1  0
  4  5  1  0
  3  6  1  0
  6  7  1  0
  7  8  1  0
  8  9  1  0
  9 10  2  0
 10 11  1  0
 11 12  1  0
 11 13  1  0
 13 14  1  0
 14 15  1  0
 15 16  1  0
 16 17  1  0
 17 18  1  0
 18 19  1  0
 19 20  1  0
 20 21  1  0
 21 22  1  0
 22 23  2  0
 21 24  1  0
 24 25  1  0
 11 26  1  0
 26 27  1  0
  6 28  1  0
 28 29  1  0
 29 30  1  0
 30 31  1  0
 31 32  1  0
 32 33  1  0
 26  9  1  0
 33 28  1  0
 15 13  1  0
 20 16  1  0
 25 21  1  0
 33 29  1  0
 33 31  1  0
  1 34  1  0
  1 35  1  0
  1 36  1  0
  2 37  1  0
  2 38  1  0
  3 39  1  0
  4 40  1  0
  4 41  1  0
  5 42  1  0
  5 43  1  0
  5 44  1  0
  6 45  1  0
  7 46  1  0
  7 47  1  0
 12 48  1  0
 12 49  1  0
 13 50  1  0
 14 51  1  0
 15 52  1  0
 16 53  1  0
 17 54  1  0
 18 55  1  0
 19 56  1  0
 19 57  1  0
 20 58  1  0
 22 59  1  0
 24 60  1  0
 24 61  1  0
 25 62  1  0
 25 63  1  0
 26 64  1  0
 27 65  1  0
 27 66  1  0
 27 67  1  0
 29 68  1  0
 31 69  1  0
M  RAD  2  30   2  32   2
M  END
