
     RDKit          2D

 53 56  0  0  0  0  0  0  0  0999 V2000
   -1.7376   24.8244    5.7135 C   0  0  0  0  0  0  0  0  0  0  0  0
   -1.7912   25.2805    4.2855 C   0  0  0  0  0  0  0  0  0  0  0  0
   -1.6626   23.8180    3.9781 C   0  0  0  0  0  0  0  0  0  0  0  0
   -1.6613   23.6562    2.4868 C   0  0  0  0  0  0  0  0  0  0  0  0
   -1.5481   22.3276    1.8000 C   0  0  0  0  0  0  0  0  0  0  0  0
   -1.5020   21.9572    3.2529 C   0  0  0  0  0  0  0  0  0  0  0  0
   -1.4559   21.5868    4.7056 C   0  0  0  0  0  0  0  0  0  0  0  0
   -1.4098   21.2165    6.1585 C   0  0  0  0  0  0  0  0  0  0  0  0
   -1.3232   20.3735    7.3961 C   0  0  0  0  0  0  0  0  0  0  0  0
   -1.4098   21.4418    8.4455 C   0  0  0  0  0  0  0  0  0  0  0  0
   -1.2771   19.7268    6.0435 C   0  0  0  0  0  0  0  0  0  0  0  0
   -1.1444   18.2882    6.4469 C   0  0  0  0  0  0  0  0  0  0  0  0
   -1.2771   19.5798    4.5507 C   0  0  0  0  0  0  0  0  0  0  0  0
   -1.5347   22.0333    0.3292 C   0  0  0  0  0  0  0  0  0  0  0  0
   -1.6312   22.9949   -0.8179 C   0  0  0  0  0  0  0  0  0  0  0  0
   -1.7701   24.6025   -0.2074 C   0  0  0  0  0  0  0  0  0  0  0  0
   -1.7567   24.3082   -1.6782 O   0  0  0  0  0  0  0  0  0  0  0  0
   -1.6847   23.7748    1.0408 O   0  0  0  0  0  0  0  0  0  0  0  0
   -1.7890   25.0187    1.8727 C   0  0  0  0  0  0  0  0  0  0  0  0
   -1.8693   26.0226    2.9843 C   0  0  0  0  0  0  0  0  0  0  0  0
   -1.8743   25.8463    0.6245 C   0  0  0  0  0  0  0  0  0  0  0  0
   -1.9597   26.6739   -0.6236 Cl  0  0  0  0  0  0  0  0  0  0  0  0
   -1.6840   24.3681    7.1414 H   0  0  0  0  0  0  0  0  0  0  0  0
   -1.6723   24.0682    5.4694 H   0  0  0  0  0  0  0  0  0  0  0  0
   -1.8604   26.2471    6.1726 H   0  0  0  0  0  0  0  0  0  0  0  0
   -1.9085   26.6477    4.8915 H   0  0  0  0  0  0  0  0  0  0  0  0
   -1.5279   22.3359    4.1655 H   0  0  0  0  0  0  0  0  0  0  0  0
   -1.6484   23.7381    4.7711 H   0  0  0  0  0  0  0  0  0  0  0  0
   -1.5521   22.5374    3.4800 H   0  0  0  0  0  0  0  0  0  0  0  0
   -1.4134   20.8405    1.9427 H   0  0  0  0  0  0  0  0  0  0  0  0
   -1.3703   20.5103    2.8798 H   0  0  0  0  0  0  0  0  0  0  0  0
   -1.6186   23.2715    3.9663 H   0  0  0  0  0  0  0  0  0  0  0  0
   -1.3502   20.2716    3.9922 H   0  0  0  0  0  0  0  0  0  0  0  0
   -1.5763   23.0348    5.0785 H   0  0  0  0  0  0  0  0  0  0  0  0
   -1.5338   22.6425    6.6069 H   0  0  0  0  0  0  0  0  0  0  0  0
   -1.2156   19.2746    8.4115 H   0  0  0  0  0  0  0  0  0  0  0  0
   -1.4964   22.5100    9.4949 H   0  0  0  0  0  0  0  0  0  0  0  0
   -1.3046   20.3975    9.5173 H   0  0  0  0  0  0  0  0  0  0  0  0
   -1.5247   22.6084    7.5098 H   0  0  0  0  0  0  0  0  0  0  0  0
   -1.0117   16.8495    6.8503 H   0  0  0  0  0  0  0  0  0  0  0  0
   -1.3917   17.6947    5.0916 H   0  0  0  0  0  0  0  0  0  0  0  0
   -0.8648   18.5310    7.9004 H   0  0  0  0  0  0  0  0  0  0  0  0
   -1.2772   19.4328    3.0579 H   0  0  0  0  0  0  0  0  0  0  0  0
   -1.1374   18.0868    4.5140 H   0  0  0  0  0  0  0  0  0  0  0  0
   -1.4138   20.9862    4.0474 H   0  0  0  0  0  0  0  0  0  0  0  0
   -1.4027   20.6062    0.7720 H   0  0  0  0  0  0  0  0  0  0  0  0
   -1.4510   20.9940   -0.7492 H   0  0  0  0  0  0  0  0  0  0  0  0
   -1.5277   21.7594   -1.6622 H   0  0  0  0  0  0  0  0  0  0  0  0
   -1.6773   23.3652   -2.2708 H   0  0  0  0  0  0  0  0  0  0  0  0
   -1.8661   25.4294   -2.6685 H   0  0  0  0  0  0  0  0  0  0  0  0
   -1.9703   27.2346    3.8622 H   0  0  0  0  0  0  0  0  0  0  0  0
   -1.9789   27.1465    1.9968 H   0  0  0  0  0  0  0  0  0  0  0  0
   -1.9882   27.1817    1.2981 H   0  0  0  0  0  0  0  0  0  0  0  0
  1  2  1  0
  2  3  1  0
  3  4  1  0
  4  5  1  0
  5  6  1  0
  6  7  1  0
  7  8  1  0
  8  9  1  0
  9 10  1  0
  9 11  1  0
 11 12  1  0
 11 13  1  0
  5 14  1  0
 14 15  1  0
 15 16  1  0
 16 17  1  0
 16 18  1  0
 18 19  1  0
 19 20  1  0
 19 21  1  0
 21 22  1  0
 20  2  1  0
 19  4  1  0
 11  8  1  0
 21 16  1  0
  1 23  1  0
  1 24  1  0
  1 25  1  0
  2 26  1  0
  3 27  1  0
  3 28  1  0
  4 29  1  0
  5 30  1  0
  6 31  1  0
  6 32  1  0
  7 33  1  0
  7 34  1  0
  8 35  1  0
  9 36  1  0
 10 37  1  0
 10 38  1  0
 10 39  1  0
 12 40  1  0
 12 41  1  0
 12 42  1  0
 13 43  1  0
 13 44  1  0
 13 45  1  0
 14 46  1  0
 14 47  1  0
 15 48  1  0
 15 49  1  0
 17 50  1  0
 20 51  1  0
 20 52  1  0
 21 53  1  0
M  END
