
     RDKit          2D

 27 29  0  0  0  0  0  0  0  0999 V2000
    2.2373   23.2317    8.6242 C   0  0  0  0  0  0  0  0  0  0  0  0
    1.9517   23.4739    7.1717 O   0  0  0  0  0  0  0  0  0  0  0  0
    1.4370   24.8087    6.7210 C   0  0  0  0  0  0  0  0  0  0  0  0
    1.4696   25.2997    8.1380 C   0  0  0  0  0  0  0  0  0  0  0  0
    1.4044   24.3177    5.3040 C   0  0  0  0  0  0  0  0  0  0  0  0
    1.3719   23.8267    3.8870 C   0  0  0  0  0  0  0  0  0  0  0  0
    1.0866   24.0690    2.4344 C   0  0  0  0  0  0  0  0  0  0  0  0
    0.5724   25.4040    1.9836 N   0  0  0  0  0  0  0  0  0  0  0  0
    0.8577   25.1618    3.4362 C   0  0  0  0  0  0  0  0  0  0  0  0
    0.8903   25.6528    4.8531 C   0  0  0  0  0  0  0  0  0  0  0  0
    0.3761   26.9878    4.4023 C   0  0  0  0  0  0  0  0  0  0  0  0
    0.9228   26.1438    6.2702 O   0  0  0  0  0  0  0  0  0  0  0  0
    2.5228   22.9896   10.0768 H   0  0  0  0  0  0  0  0  0  0  0  0
    1.8244   24.6388    8.9400 H   0  0  0  0  0  0  0  0  0  0  0  0
    2.6818   21.8057    8.4879 H   0  0  0  0  0  0  0  0  0  0  0  0
    1.1758   25.5602    6.6708 H   0  0  0  0  0  0  0  0  0  0  0  0
    1.5021   25.7908    9.5550 H   0  0  0  0  0  0  0  0  0  0  0  0
    0.9567   26.6353    7.6869 H   0  0  0  0  0  0  0  0  0  0  0  0
    1.9600   24.2290    9.0669 H   0  0  0  0  0  0  0  0  0  0  0  0
    1.9186   22.9826    5.7548 H   0  0  0  0  0  0  0  0  0  0  0  0
    1.8601   22.4100    3.9557 H   0  0  0  0  0  0  0  0  0  0  0  0
    1.3154   22.9762    1.4327 H   0  0  0  0  0  0  0  0  0  0  0  0
    0.1109   26.3147    0.8847 H   0  0  0  0  0  0  0  0  0  0  0  0
   -0.1381   28.3229    3.9515 H   0  0  0  0  0  0  0  0  0  0  0  0
    0.3419   27.6367    5.7543 H   0  0  0  0  0  0  0  0  0  0  0  0
    0.3474   26.4981    2.9848 H   0  0  0  0  0  0  0  0  0  0  0  0
    0.5330   27.5059    6.7627 H   0  0  0  0  0  0  0  0  0  0  0  0
  1  2  1  0
  2  3  1  0
  3  4  1  0
  3  5  1  0
  5  6  1  0
  6  7  1  0
  7  8  1  0
  8  9  1  0
  9 10  1  0
 10 11  1  0
 10 12  1  0
 10  5  1  0
  9  6  1  0
  9  7  1  0
  1 13  1  0
  1 14  1  0
  1 15  1  0
  3 16  1  0
  4 17  1  0
  4 18  1  0
  4 19  1  0
  5 20  1  0
  6 21  1  0
  7 22  1  0
  8 23  1  0
 11 24  1  0
 11 25  1  0
 11 26  1  0
 12 27  1  0
M  END
