
     RDKit          2D

100105  0  0  0  0  0  0  0  0999 V2000
   23.6681  -17.7320    3.3103 C   0  0  0  0  0  0  0  0  0  0  0  0
   22.5320  -18.3506    2.5511 C   0  0  0  0  0  0  0  0  0  0  0  0
   21.3958  -18.9691    1.7919 C   0  0  0  0  0  0  0  0  0  0  0  0
   20.2596  -19.5877    1.0326 C   0  0  0  0  0  0  0  0  0  0  0  0
   19.1234  -20.2062    0.2733 C   0  0  0  0  0  0  0  0  0  0  0  0
   19.7560  -19.7821   -1.0189 C   0  0  0  0  0  0  0  0  0  0  0  0
   18.7441  -20.3126   -1.9908 C   0  0  0  0  0  0  0  0  0  0  0  0
   18.0739  -20.6318   -3.2943 C   0  0  0  0  0  0  0  0  0  0  0  0
   17.4027  -21.8137   -2.6597 C   0  0  0  0  0  0  0  0  0  0  0  0
   16.7325  -22.1329   -3.9632 C   0  0  0  0  0  0  0  0  0  0  0  0
   16.0623  -22.4521   -5.2666 N   0  0  0  0  0  0  0  0  0  0  0  0
   15.4101  -23.7880   -5.4672 C   0  0  0  0  0  0  0  0  0  0  0  0
   17.4037  -20.9510   -4.5977 C   0  0  0  0  0  0  0  0  0  0  0  0
   18.0750  -19.7692   -5.2323 C   0  0  0  0  0  0  0  0  0  0  0  0
   19.9609  -19.5934   -2.4928 C   0  0  0  0  0  0  0  0  0  0  0  0
   21.1777  -18.8741   -2.9948 C   0  0  0  0  0  0  0  0  0  0  0  0
   20.1658  -19.4046   -3.9667 C   0  0  0  0  0  0  0  0  0  0  0  0
   20.7985  -18.9805   -5.2589 C   0  0  0  0  0  0  0  0  0  0  0  0
   21.6541  -18.4381   -6.3652 C   0  0  0  0  0  0  0  0  0  0  0  0
   20.9839  -18.7573   -7.6686 C   0  0  0  0  0  0  0  0  0  0  0  0
   21.0986  -18.6193   -9.1578 C   0  0  0  0  0  0  0  0  0  0  0  0
   19.8996  -19.2738   -9.7776 C   0  0  0  0  0  0  0  0  0  0  0  0
   20.5322  -18.8497  -11.0698 C   0  0  0  0  0  0  0  0  0  0  0  0
   21.1649  -18.4255  -12.3621 C   0  0  0  0  0  0  0  0  0  0  0  0
   20.0264  -19.0401  -13.1212 O   0  0  0  0  0  0  0  0  0  0  0  0
   21.7975  -18.0014  -13.6543 C   0  0  0  0  0  0  0  0  0  0  0  0
   22.9364  -17.3877  -12.8953 F   0  0  0  0  0  0  0  0  0  0  0  0
   22.4302  -17.5772  -14.9466 C   0  0  0  0  0  0  0  0  0  0  0  0
   23.0628  -17.1531  -16.2387 O   0  0  0  0  0  0  0  0  0  0  0  0
   18.8328  -19.8395  -10.6675 C   0  0  0  0  0  0  0  0  0  0  0  0
   17.7661  -20.4053  -11.5575 C   0  0  0  0  0  0  0  0  0  0  0  0
   18.0820  -20.3209   -9.4615 F   0  0  0  0  0  0  0  0  0  0  0  0
   19.0439  -19.8162   -8.6714 O   0  0  0  0  0  0  0  0  0  0  0  0
   19.7141  -19.4970   -7.3680 C   0  0  0  0  0  0  0  0  0  0  0  0
   19.5994  -19.6350   -5.8787 C   0  0  0  0  0  0  0  0  0  0  0  0
   18.4907  -20.6304    1.5656 C   0  0  0  0  0  0  0  0  0  0  0  0
   17.3545  -21.2489    0.8063 C   0  0  0  0  0  0  0  0  0  0  0  0
   16.7123  -21.6563    2.0992 S   0  0  0  0  0  0  0  0  0  0  0  0
   16.2183  -21.8675    0.0471 C   0  0  0  0  0  0  0  0  0  0  0  0
   15.0822  -22.4860   -0.7121 C   0  0  0  0  0  0  0  0  0  0  0  0
   13.9460  -23.1046   -1.4715 I   0  0  0  0  0  0  0  0  0  0  0  0
   19.6269  -20.0118    2.3248 N   0  0  0  0  0  0  0  0  0  0  0  0
   19.9830  -19.8743    3.7755 C   0  0  0  0  0  0  0  0  0  0  0  0
   24.8044  -17.1135    4.0696 H   0  0  0  0  0  0  0  0  0  0  0  0
   24.3145  -17.3320    2.0172 H   0  0  0  0  0  0  0  0  0  0  0  0
   23.0217  -18.1321    4.6035 H   0  0  0  0  0  0  0  0  0  0  0  0
   22.3103  -19.0834    3.8411 H   0  0  0  0  0  0  0  0  0  0  0  0
   22.8948  -17.5363    1.3448 H   0  0  0  0  0  0  0  0  0  0  0  0
   22.0375  -18.5609    0.4990 H   0  0  0  0  0  0  0  0  0  0  0  0
   20.8973  -19.2990    3.1677 H   0  0  0  0  0  0  0  0  0  0  0  0
   20.8183  -19.2258    0.1650 H   0  0  0  0  0  0  0  0  0  0  0  0
   18.0390  -20.8053   -0.2632 H   0  0  0  0  0  0  0  0  0  0  0  0
   20.6850  -19.2640   -0.7652 H   0  0  0  0  0  0  0  0  0  0  0  0
   18.1697  -20.6615   -1.5621 H   0  0  0  0  0  0  0  0  0  0  0  0
   18.7451  -19.4499   -3.9288 H   0  0  0  0  0  0  0  0  0  0  0  0
   16.6548  -23.0256   -2.1888 H   0  0  0  0  0  0  0  0  0  0  0  0
   17.7984  -21.6252   -1.8900 H   0  0  0  0  0  0  0  0  0  0  0  0
   16.0613  -23.3148   -3.3286 H   0  0  0  0  0  0  0  0  0  0  0  0
   15.9515  -21.5596   -6.4670 H   0  0  0  0  0  0  0  0  0  0  0  0
   14.7579  -25.1237   -5.6678 H   0  0  0  0  0  0  0  0  0  0  0  0
   15.0121  -23.3850   -6.8562 H   0  0  0  0  0  0  0  0  0  0  0  0
   15.8081  -24.1909   -4.0782 H   0  0  0  0  0  0  0  0  0  0  0  0
   16.8204  -21.1238   -5.9688 H   0  0  0  0  0  0  0  0  0  0  0  0
   18.6752  -18.7695   -6.1758 H   0  0  0  0  0  0  0  0  0  0  0  0
   17.6376  -20.7603   -6.2698 H   0  0  0  0  0  0  0  0  0  0  0  0
   17.7839  -20.5166   -6.4998 H   0  0  0  0  0  0  0  0  0  0  0  0
   21.8479  -18.5549   -1.6914 H   0  0  0  0  0  0  0  0  0  0  0  0
   22.2586  -18.2177   -3.8016 H   0  0  0  0  0  0  0  0  0  0  0  0
   18.9342  -20.0824   -4.4898 H   0  0  0  0  0  0  0  0  0  0  0  0
   21.9484  -18.3597   -4.5226 H   0  0  0  0  0  0  0  0  0  0  0  0
   22.5420  -17.9857   -5.2440 H   0  0  0  0  0  0  0  0  0  0  0  0
   22.7831  -17.7586   -7.0819 H   0  0  0  0  0  0  0  0  0  0  0  0
   22.2538  -18.0176   -7.9692 H   0  0  0  0  0  0  0  0  0  0  0  0
   22.3983  -17.8841   -9.0161 H   0  0  0  0  0  0  0  0  0  0  0  0
   21.6295  -18.2503  -10.5112 H   0  0  0  0  0  0  0  0  0  0  0  0
   19.4763  -19.4026  -11.9805 H   0  0  0  0  0  0  0  0  0  0  0  0
   21.7424  -18.1933  -10.4742 H   0  0  0  0  0  0  0  0  0  0  0  0
   22.3033  -17.8109  -11.6030 H   0  0  0  0  0  0  0  0  0  0  0  0
   18.8409  -19.7572  -12.5466 H   0  0  0  0  0  0  0  0  0  0  0  0
   20.7441  -18.5588  -14.5652 H   0  0  0  0  0  0  0  0  0  0  0  0
   23.5734  -16.9710  -14.1879 H   0  0  0  0  0  0  0  0  0  0  0  0
   21.2870  -18.1834  -15.7053 H   0  0  0  0  0  0  0  0  0  0  0  0
   24.3656  -16.4097  -16.2274 H   0  0  0  0  0  0  0  0  0  0  0  0
   19.4481  -19.4308  -11.9730 H   0  0  0  0  0  0  0  0  0  0  0  0
   16.6994  -20.9711  -12.4474 H   0  0  0  0  0  0  0  0  0  0  0  0
   17.0160  -20.8880  -10.3515 H   0  0  0  0  0  0  0  0  0  0  0  0
   18.5162  -19.9227  -12.7635 H   0  0  0  0  0  0  0  0  0  0  0  0
   18.4239  -20.2217   -7.6136 H   0  0  0  0  0  0  0  0  0  0  0  0
   18.3606  -20.3180   -6.3773 H   0  0  0  0  0  0  0  0  0  0  0  0
   19.2174  -19.9223   -4.4569 H   0  0  0  0  0  0  0  0  0  0  0  0
   17.8581  -21.0545    2.8578 H   0  0  0  0  0  0  0  0  0  0  0  0
   17.8535  -20.9200   -0.5695 H   0  0  0  0  0  0  0  0  0  0  0  0
   15.4184  -22.3954    2.2710 H   0  0  0  0  0  0  0  0  0  0  0  0
   15.7846  -22.8262    1.1160 H   0  0  0  0  0  0  0  0  0  0  0  0
   16.6521  -20.9087   -1.0219 H   0  0  0  0  0  0  0  0  0  0  0  0
   14.4361  -22.8865    0.5810 H   0  0  0  0  0  0  0  0  0  0  0  0
   15.5850  -22.1639   -2.0882 H   0  0  0  0  0  0  0  0  0  0  0  0
   20.3391  -19.7368    5.2261 H   0  0  0  0  0  0  0  0  0  0  0  0
   21.4315  -19.4851    3.7584 H   0  0  0  0  0  0  0  0  0  0  0  0
   18.5789  -20.2412    4.1549 H   0  0  0  0  0  0  0  0  0  0  0  0
  1  2  1  0
  2  3  1  0
  3  4  1  0
  4  5  1  0
  5  6  1  0
  6  7  1  0
  7  8  1  0
  8  9  1  0
  9 10  1  0
 10 11  1  0
 11 12  1  0
 10 13  1  0
 13 14  1  0
  7 15  1  0
 15 16  1  0
 16 17  1  0
 17 18  1  0
 18 19  1  0
 19 20  1  0
 20 21  1  0
 21 22  1  0
 22 23  1  0
 23 24  1  0
 24 25  1  0
 24 26  1  0
 26 27  1  0
 26 28  1  0
 28 29  1  0
 22 30  1  0
 30 31  1  0
 30 32  1  0
 22 33  1  0
 33 34  1  0
 34 35  1  0
  5 36  1  0
 36 37  1  0
 37 38  1  0
 37 39  1  0
 39 40  1  0
 40 41  1  0
 36 42  1  0
 42 43  1  0
 42  4  1  0
 15  6  1  0
 35 18  1  0
 13  8  1  0
 17 15  1  0
 34 20  1  0
  1 44  1  0
  1 45  1  0
  1 46  1  0
  2 47  1  0
  2 48  1  0
  3 49  1  0
  3 50  1  0
  4 51  1  0
  5 52  1  0
  6 53  1  0
  7 54  1  0
  8 55  1  0
  9 56  1  0
  9 57  1  0
 10 58  1  0
 11 59  1  0
 12 60  1  0
 12 61  1  0
 12 62  1  0
 13 63  1  0
 14 64  1  0
 14 65  1  0
 14 66  1  0
 16 67  1  0
 16 68  1  0
 17 69  1  0
 18 70  1  0
 19 71  1  0
 19 72  1  0
 20 73  1  0
 21 74  1  0
 21 75  1  0
 23 76  1  0
 23 77  1  0
 24 78  1  0
 25 79  1  0
 26 80  1  0
 28 81  1  0
 28 82  1  0
 29 83  1  0
 30 84  1  0
 31 85  1  0
 31 86  1  0
 31 87  1  0
 34 88  1  0
 35 89  1  0
 35 90  1  0
 36 91  1  0
 37 92  1  0
 38 93  1  0
 39 94  1  0
 39 95  1  0
 40 96  1  0
 40 97  1  0
 43 98  1  0
 43 99  1  0
 43100  1  0
M  END
