
     RDKit          2D

 46 53  0  0  0  0  0  0  0  0999 V2000
   21.6407  -16.4418  -14.2935 C   0  0  0  0  0  0  0  0  0  0  0  0
   21.4971  -17.7058  -13.4987 C   0  0  0  0  0  0  0  0  0  0  0  0
   21.3535  -18.9698  -12.7040 C   0  0  0  0  0  0  0  0  0  0  0  0
   21.2099  -20.2339  -11.9092 C   0  0  0  0  0  0  0  0  0  0  0  0
   22.5477  -20.8597  -12.1712 C   0  0  0  0  0  0  0  0  0  0  0  0
   21.5482  -21.5627  -11.3013 C   0  0  0  0  0  0  0  0  0  0  0  0
   20.2780  -21.8375  -10.5522 C   0  0  0  0  0  0  0  0  0  0  0  0
   19.0078  -22.1121   -9.8031 C   0  0  0  0  0  0  0  0  0  0  0  0
   19.7050  -23.3773   -9.3988 C   0  0  0  0  0  0  0  0  0  0  0  0
   18.4333  -22.5942   -9.2582 C   0  0  0  0  0  0  0  0  0  0  0  0
   17.1617  -21.8113   -9.1175 C   0  0  0  0  0  0  0  0  0  0  0  0
   16.0372  -22.3504   -8.2839 C   0  0  0  0  0  0  0  0  0  0  0  0
   14.6539  -22.2097   -7.7214 C   0  0  0  0  0  0  0  0  0  0  0  0
   16.1844  -23.6726   -7.5910 C   0  0  0  0  0  0  0  0  0  0  0  0
   17.4561  -24.4556   -7.7316 C   0  0  0  0  0  0  0  0  0  0  0  0
   18.2753  -25.6710   -7.4127 C   0  0  0  0  0  0  0  0  0  0  0  0
   19.5470  -26.4540   -7.5534 C   0  0  0  0  0  0  0  0  0  0  0  0
   19.3998  -25.1319   -8.2464 C   0  0  0  0  0  0  0  0  0  0  0  0
   18.5806  -23.9164   -8.5652 C   0  0  0  0  0  0  0  0  0  0  0  0
   15.8900  -21.0283   -8.9769 C   0  0  0  0  0  0  0  0  0  0  0  0
   21.7844  -15.1778  -15.0883 H   0  0  0  0  0  0  0  0  0  0  0  0
   22.2076  -15.7492  -13.0897 H   0  0  0  0  0  0  0  0  0  0  0  0
   21.0739  -17.1343  -15.4973 H   0  0  0  0  0  0  0  0  0  0  0  0
   21.9984  -16.9944  -12.2769 H   0  0  0  0  0  0  0  0  0  0  0  0
   20.9959  -18.4171  -14.7205 H   0  0  0  0  0  0  0  0  0  0  0  0
   22.6058  -19.1991  -13.1530 H   0  0  0  0  0  0  0  0  0  0  0  0
   19.9693  -18.5579  -12.2989 H   0  0  0  0  0  0  0  0  0  0  0  0
   19.9595  -19.9226  -11.5068 H   0  0  0  0  0  0  0  0  0  0  0  0
   23.6743  -21.8490  -12.1255 H   0  0  0  0  0  0  0  0  0  0  0  0
   23.2283  -20.0146  -12.9745 H   0  0  0  0  0  0  0  0  0  0  0  0
   22.3277  -22.7962  -10.9535 H   0  0  0  0  0  0  0  0  0  0  0  0
   20.8016  -22.7543  -10.2675 H   0  0  0  0  0  0  0  0  0  0  0  0
   19.6316  -20.7056  -10.9037 H   0  0  0  0  0  0  0  0  0  0  0  0
   18.5762  -20.7896  -10.3640 H   0  0  0  0  0  0  0  0  0  0  0  0
   20.7191  -23.5966   -9.7443 H   0  0  0  0  0  0  0  0  0  0  0  0
   17.5782  -23.4475   -8.3690 H   0  0  0  0  0  0  0  0  0  0  0  0
   17.7258  -20.7366   -9.9989 H   0  0  0  0  0  0  0  0  0  0  0  0
   13.2704  -22.0689   -7.1589 H   0  0  0  0  0  0  0  0  0  0  0  0
   14.6333  -23.5023   -6.9607 H   0  0  0  0  0  0  0  0  0  0  0  0
   14.5046  -20.8901   -8.4188 H   0  0  0  0  0  0  0  0  0  0  0  0
   15.1683  -24.3559   -6.7247 H   0  0  0  0  0  0  0  0  0  0  0  0
   16.5820  -25.2910   -6.8439 H   0  0  0  0  0  0  0  0  0  0  0  0
   17.4012  -26.5064   -6.5250 H   0  0  0  0  0  0  0  0  0  0  0  0
   19.2122  -27.6483   -6.7098 H   0  0  0  0  0  0  0  0  0  0  0  0
   20.9350  -26.8222   -7.9870 H   0  0  0  0  0  0  0  0  0  0  0  0
   20.6979  -24.9256   -8.9690 H   0  0  0  0  0  0  0  0  0  0  0  0
  1  2  1  0
  2  3  1  0
  3  4  1  0
  4  5  1  0
  5  6  1  0
  6  7  1  0
  7  8  1  0
  8  9  1  0
  9 10  1  0
 10 11  1  0
 11 12  1  0
 12 13  1  0
 12 14  1  0
 14 15  1  0
 15 16  1  0
 16 17  1  0
 17 18  1  0
 18 19  1  0
 14 20  1  0
  6  4  1  0
 20  8  1  0
 19  9  1  0
 19 10  1  0
 20 11  1  0
 20 12  1  0
 19 15  1  0
 18 16  1  0
  1 21  1  0
  1 22  1  0
  1 23  1  0
  2 24  1  0
  2 25  1  0
  3 26  1  0
  3 27  1  0
  4 28  1  0
  5 29  1  0
  5 30  1  0
  6 31  1  0
  7 32  1  0
  7 33  1  0
  8 34  1  0
  9 35  1  0
 10 36  1  0
 11 37  1  0
 13 38  1  0
 13 39  1  0
 13 40  1  0
 14 41  1  0
 15 42  1  0
 16 43  1  0
 17 44  1  0
 17 45  1  0
 18 46  1  0
M  END
