
     RDKit          2D

 95 99  0  0  0  0  0  0  0  0999 V2000
   17.3085  -16.7243   -9.2072 C   0  0  0  0  0  0  0  0  0  0  0  0
   17.8495  -18.0964   -8.9340 C   0  0  0  0  0  0  0  0  0  0  0  0
   18.3295  -19.2358   -9.7833 C   0  0  0  0  0  0  0  0  0  0  0  0
   18.0444  -18.4348  -11.0190 C   0  0  0  0  0  0  0  0  0  0  0  0
   17.0721  -17.2977  -11.1279 C   0  0  0  0  0  0  0  0  0  0  0  0
   17.1084  -16.7904  -12.5390 C   0  0  0  0  0  0  0  0  0  0  0  0
   18.1031  -17.6138  -13.3023 C   0  0  0  0  0  0  0  0  0  0  0  0
   18.6816  -18.6301  -12.3629 C   0  0  0  0  0  0  0  0  0  0  0  0
   18.7178  -18.1228  -13.7740 C   0  0  0  0  0  0  0  0  0  0  0  0
   19.7424  -19.2009  -13.9686 C   0  0  0  0  0  0  0  0  0  0  0  0
   17.7455  -16.9857  -13.8829 C   0  0  0  0  0  0  0  0  0  0  0  0
   18.1992  -16.9414  -15.3119 C   0  0  0  0  0  0  0  0  0  0  0  0
   18.6146  -20.0369   -8.5476 C   0  0  0  0  0  0  0  0  0  0  0  0
   18.1346  -18.8975   -7.6982 C   0  0  0  0  0  0  0  0  0  0  0  0
   18.2858  -19.3763   -6.2847 C   0  0  0  0  0  0  0  0  0  0  0  0
   17.7448  -18.0042   -6.5580 C   0  0  0  0  0  0  0  0  0  0  0  0
   17.5151  -17.5303   -5.1535 C   0  0  0  0  0  0  0  0  0  0  0  0
   17.0022  -16.2222   -5.6787 C   0  0  0  0  0  0  0  0  0  0  0  0
   16.4893  -14.9141   -6.2039 F   0  0  0  0  0  0  0  0  0  0  0  0
   16.7725  -15.7483   -4.2741 C   0  0  0  0  0  0  0  0  0  0  0  0
   16.5429  -15.2745   -2.8696 C   0  0  0  0  0  0  0  0  0  0  0  0
   16.3132  -14.8005   -1.4651 C   0  0  0  0  0  0  0  0  0  0  0  0
   16.0836  -14.3267   -0.0606 C   0  0  0  0  0  0  0  0  0  0  0  0
   15.8070  -13.4898   -1.9902 C   0  0  0  0  0  0  0  0  0  0  0  0
   17.2854  -17.0564   -3.7489 C   0  0  0  0  0  0  0  0  0  0  0  0
   17.7983  -18.3645   -3.2238 C   0  0  0  0  0  0  0  0  0  0  0  0
   17.5714  -17.8895   -1.8191 O   0  0  0  0  0  0  0  0  0  0  0  0
   18.3112  -19.6726   -2.6985 C   0  0  0  0  0  0  0  0  0  0  0  0
   18.8241  -20.9807   -2.1733 C   0  0  0  0  0  0  0  0  0  0  0  0
   19.0507  -21.4558   -3.5779 O   0  0  0  0  0  0  0  0  0  0  0  0
   19.3370  -22.2887   -1.6481 C   0  0  0  0  0  0  0  0  0  0  0  0
   19.8499  -23.5969   -1.1228 C   0  0  0  0  0  0  0  0  0  0  0  0
   20.3628  -24.9050   -0.5977 C   0  0  0  0  0  0  0  0  0  0  0  0
   20.8757  -26.2130   -0.0724 C   0  0  0  0  0  0  0  0  0  0  0  0
   21.3886  -27.5211    0.4527 C   0  0  0  0  0  0  0  0  0  0  0  0
   21.9014  -28.8292    0.9780 C   0  0  0  0  0  0  0  0  0  0  0  0
   21.6228  -27.9932   -0.9516 C   0  0  0  0  0  0  0  0  0  0  0  0
   21.8571  -28.4652   -2.3560 C   0  0  0  0  0  0  0  0  0  0  0  0
   16.9187  -15.8311   -8.0670 H   0  0  0  0  0  0  0  0  0  0  0  0
   17.1940  -16.3870   -9.9203 H   0  0  0  0  0  0  0  0  0  0  0  0
   18.8095  -20.3752  -10.6327 H   0  0  0  0  0  0  0  0  0  0  0  0
   16.5822  -16.9494  -10.6044 H   0  0  0  0  0  0  0  0  0  0  0  0
   16.2931  -15.6583  -13.0901 H   0  0  0  0  0  0  0  0  0  0  0  0
   17.9592  -16.9352  -14.6323 H   0  0  0  0  0  0  0  0  0  0  0  0
   18.9507  -18.1316  -14.4263 H   0  0  0  0  0  0  0  0  0  0  0  0
   19.7035  -19.7150  -12.5324 H   0  0  0  0  0  0  0  0  0  0  0  0
   19.0887  -17.9786  -15.2203 H   0  0  0  0  0  0  0  0  0  0  0  0
   20.7670  -20.2789  -14.1633 H   0  0  0  0  0  0  0  0  0  0  0  0
   19.9417  -18.7554  -15.3870 H   0  0  0  0  0  0  0  0  0  0  0  0
   19.6695  -19.7744  -12.5846 H   0  0  0  0  0  0  0  0  0  0  0  0
   16.8681  -15.8394  -14.2905 H   0  0  0  0  0  0  0  0  0  0  0  0
   18.6529  -16.8971  -16.7410 H   0  0  0  0  0  0  0  0  0  0  0  0
   17.2735  -15.7897  -15.5701 H   0  0  0  0  0  0  0  0  0  0  0  0
   19.2072  -18.0482  -15.4072 H   0  0  0  0  0  0  0  0  0  0  0  0
   19.0946  -21.1762   -9.3969 H   0  0  0  0  0  0  0  0  0  0  0  0
   18.9561  -20.9708   -7.4246 H   0  0  0  0  0  0  0  0  0  0  0  0
   18.8440  -20.7671   -6.3502 H   0  0  0  0  0  0  0  0  0  0  0  0
   18.3800  -19.7158   -4.8268 H   0  0  0  0  0  0  0  0  0  0  0  0
   17.3253  -16.8903   -7.4708 H   0  0  0  0  0  0  0  0  0  0  0  0
   18.0280  -18.8384   -4.6282 H   0  0  0  0  0  0  0  0  0  0  0  0
   17.1676  -16.5331   -7.1368 H   0  0  0  0  0  0  0  0  0  0  0  0
   16.2597  -14.4403   -4.7994 H   0  0  0  0  0  0  0  0  0  0  0  0
   16.0657  -14.0324   -3.5621 H   0  0  0  0  0  0  0  0  0  0  0  0
   17.0201  -16.5166   -2.1772 H   0  0  0  0  0  0  0  0  0  0  0  0
   16.8195  -16.1113   -0.9401 H   0  0  0  0  0  0  0  0  0  0  0  0
   15.8539  -13.8528    1.3440 H   0  0  0  0  0  0  0  0  0  0  0  0
   16.5909  -15.6370    0.4645 H   0  0  0  0  0  0  0  0  0  0  0  0
   15.5520  -12.9684   -0.4105 H   0  0  0  0  0  0  0  0  0  0  0  0
   15.3008  -12.1791   -2.5153 H   0  0  0  0  0  0  0  0  0  0  0  0
   15.9771  -13.7989   -3.4481 H   0  0  0  0  0  0  0  0  0  0  0  0
   15.5134  -12.8611   -0.6603 H   0  0  0  0  0  0  0  0  0  0  0  0
   17.1200  -16.7455   -2.2909 H   0  0  0  0  0  0  0  0  0  0  0  0
   18.1426  -19.1419   -4.4595 H   0  0  0  0  0  0  0  0  0  0  0  0
   17.8444  -18.6483   -0.5543 H   0  0  0  0  0  0  0  0  0  0  0  0
   18.1482  -19.3607   -1.2404 H   0  0  0  0  0  0  0  0  0  0  0  0
   18.5384  -20.1475   -4.1031 H   0  0  0  0  0  0  0  0  0  0  0  0
   18.5975  -20.5055   -0.7687 H   0  0  0  0  0  0  0  0  0  0  0  0
   19.5963  -22.7865   -4.0038 H   0  0  0  0  0  0  0  0  0  0  0  0
   19.1105  -21.8136   -0.2435 H   0  0  0  0  0  0  0  0  0  0  0  0
   19.6243  -22.9199   -2.9782 H   0  0  0  0  0  0  0  0  0  0  0  0
   19.6266  -23.1204    0.2818 H   0  0  0  0  0  0  0  0  0  0  0  0
   20.0731  -24.0734   -2.5276 H   0  0  0  0  0  0  0  0  0  0  0  0
   20.5885  -25.3805   -2.0022 H   0  0  0  0  0  0  0  0  0  0  0  0
   20.1371  -24.4295    0.8070 H   0  0  0  0  0  0  0  0  0  0  0  0
   20.6501  -25.7375    1.3321 H   0  0  0  0  0  0  0  0  0  0  0  0
   21.0370  -26.5256   -1.5306 H   0  0  0  0  0  0  0  0  0  0  0  0
   21.1543  -27.0491    1.8572 H   0  0  0  0  0  0  0  0  0  0  0  0
   22.4143  -30.1373    1.5034 H   0  0  0  0  0  0  0  0  0  0  0  0
   22.1189  -29.3082   -0.4267 H   0  0  0  0  0  0  0  0  0  0  0  0
   21.7482  -28.5133    2.4363 H   0  0  0  0  0  0  0  0  0  0  0  0
   22.1602  -29.3491   -0.6015 H   0  0  0  0  0  0  0  0  0  0  0  0
   21.1425  -26.7523   -1.6441 H   0  0  0  0  0  0  0  0  0  0  0  0
   22.0913  -28.9371   -3.7604 H   0  0  0  0  0  0  0  0  0  0  0  0
   21.3346  -27.1609   -2.8814 H   0  0  0  0  0  0  0  0  0  0  0  0
   22.3795  -29.7693   -1.8305 H   0  0  0  0  0  0  0  0  0  0  0  0
  1  2  2  3
  2  3  1  0
  3  4  1  0
  4  5  2  0
  5  6  1  0
  6  7  1  0
  7  8  1  0
  8  9  1  0
  9 10  1  0
  9 11  1  0
 11 12  1  0
  3 13  1  0
 13 14  1  0
 14 15  1  0
 15 16  1  0
 16 17  1  0
 17 18  1  0
 18 19  1  0
 18 20  1  0
 20 21  1  0
 21 22  1  0
 22 23  1  0
 22 24  1  0
 20 25  1  0
 25 26  1  0
 26 27  1  0
 26 28  1  0
 28 29  1  0
 29 30  1  0
 29 31  1  0
 31 32  1  0
 32 33  1  0
 33 34  1  0
 34 35  1  0
 35 36  1  0
 35 37  1  0
 37 38  1  0
 14  2  1  0
 25 17  1  0
  8  4  1  0
 16 14  1  0
 11  6  1  0
  1 39  1  0
  1 40  1  0
  3 41  1  0
  5 42  1  0
  6 43  1  0
  7 44  1  0
  7 45  1  0
  8 46  1  0
  9 47  1  0
 10 48  1  0
 10 49  1  0
 10 50  1  0
 11 51  1  0
 12 52  1  0
 12 53  1  0
 12 54  1  0
 13 55  1  0
 13 56  1  0
 15 57  1  0
 15 58  1  0
 16 59  1  0
 17 60  1  0
 18 61  1  0
 20 62  1  0
 21 63  1  0
 21 64  1  0
 22 65  1  0
 23 66  1  0
 23 67  1  0
 23 68  1  0
 24 69  1  0
 24 70  1  0
 24 71  1  0
 25 72  1  0
 26 73  1  0
 27 74  1  0
 28 75  1  0
 28 76  1  0
 29 77  1  0
 30 78  1  0
 31 79  1  0
 31 80  1  0
 32 81  1  0
 32 82  1  0
 33 83  1  0
 33 84  1  0
 34 85  1  0
 34 86  1  0
 35 87  1  0
 36 88  1  0
 36 89  1  0
 36 90  1  0
 37 91  1  0
 37 92  1  0
 38 93  1  0
 38 94  1  0
 38 95  1  0
M  END
