
     RDKit          2D

 55 62  0  0  0  0  0  0  0  0999 V2000
   10.5898  -21.7731  -21.6000 C   0  0  0  0  0  0  0  0  0  0  0  0
   11.5091  -21.9914  -20.4350 C   0  0  0  0  0  0  0  0  0  0  0  0
   12.4284  -22.2098  -19.2700 C   0  0  0  0  0  0  0  0  0  0  0  0
   11.9241  -21.1485  -18.3378 C   0  0  0  0  0  0  0  0  0  0  0  0
   11.1723  -20.0174  -17.7008 C   0  0  0  0  0  0  0  0  0  0  0  0
   11.2468  -19.3027  -16.3842 C   0  0  0  0  0  0  0  0  0  0  0  0
   12.1039  -19.4230  -15.1591 C   0  0  0  0  0  0  0  0  0  0  0  0
   12.4702  -18.9616  -13.7796 C   0  0  0  0  0  0  0  0  0  0  0  0
   13.2415  -20.3078  -14.7431 C   0  0  0  0  0  0  0  0  0  0  0  0
   13.6078  -19.8464  -13.3636 C   0  0  0  0  0  0  0  0  0  0  0  0
   14.3596  -20.9774  -14.0005 C   0  0  0  0  0  0  0  0  0  0  0  0
   13.9933  -21.4388  -15.3800 C   0  0  0  0  0  0  0  0  0  0  0  0
   13.9188  -22.1535  -16.6966 C   0  0  0  0  0  0  0  0  0  0  0  0
   14.4231  -23.2149  -17.6290 C   0  0  0  0  0  0  0  0  0  0  0  0
   15.2467  -24.3520  -18.1566 O   0  0  0  0  0  0  0  0  0  0  0  0
   15.5176  -23.8018  -16.7877 C   0  0  0  0  0  0  0  0  0  0  0  0
   15.3933  -22.9443  -15.5633 O   0  0  0  0  0  0  0  0  0  0  0  0
   16.6552  -24.6866  -16.3718 C   0  0  0  0  0  0  0  0  0  0  0  0
   17.7928  -25.5714  -15.9558 O   0  0  0  0  0  0  0  0  0  0  0  0
   18.4261  -25.3948  -14.6076 C   0  0  0  0  0  0  0  0  0  0  0  0
   18.2678  -24.0992  -13.8686 C   0  0  0  0  0  0  0  0  0  0  0  0
   19.0594  -25.2183  -13.2594 C   0  0  0  0  0  0  0  0  0  0  0  0
   19.8509  -26.3373  -12.6502 C   0  0  0  0  0  0  0  0  0  0  0  0
   19.2176  -26.5139  -13.9984 C   0  0  0  0  0  0  0  0  0  0  0  0
   13.0617  -22.0332  -17.9218 C   0  0  0  0  0  0  0  0  0  0  0  0
    9.6705  -21.5547  -22.7650 H   0  0  0  0  0  0  0  0  0  0  0  0
    9.9146  -20.6579  -20.8581 H   0  0  0  0  0  0  0  0  0  0  0  0
   11.2650  -22.8883  -22.3419 H   0  0  0  0  0  0  0  0  0  0  0  0
   12.1839  -23.1071  -21.1767 H   0  0  0  0  0  0  0  0  0  0  0  0
   10.9392  -21.1649  -20.0019 H   0  0  0  0  0  0  0  0  0  0  0  0
   13.2521  -23.3470  -19.7977 H   0  0  0  0  0  0  0  0  0  0  0  0
   11.1820  -20.8571  -19.0862 H   0  0  0  0  0  0  0  0  0  0  0  0
   10.0562  -19.0418  -17.9295 H   0  0  0  0  0  0  0  0  0  0  0  0
   10.5390  -20.1940  -19.0491 H   0  0  0  0  0  0  0  0  0  0  0  0
   10.6216  -18.1994  -15.5830 H   0  0  0  0  0  0  0  0  0  0  0  0
   10.1099  -18.5259  -16.9792 H   0  0  0  0  0  0  0  0  0  0  0  0
   11.2402  -18.2862  -14.6988 H   0  0  0  0  0  0  0  0  0  0  0  0
   12.7022  -18.3769  -12.4179 H   0  0  0  0  0  0  0  0  0  0  0  0
   11.3906  -17.9219  -13.8405 H   0  0  0  0  0  0  0  0  0  0  0  0
   13.0741  -19.4383  -13.5707 H   0  0  0  0  0  0  0  0  0  0  0  0
   12.8712  -18.7176  -12.7053 H   0  0  0  0  0  0  0  0  0  0  0  0
   14.3214  -19.7684  -12.0465 H   0  0  0  0  0  0  0  0  0  0  0  0
   15.4777  -21.6470  -13.2580 H   0  0  0  0  0  0  0  0  0  0  0  0
   15.1320  -22.2369  -14.8176 H   0  0  0  0  0  0  0  0  0  0  0  0
   14.9499  -22.5808  -15.6944 H   0  0  0  0  0  0  0  0  0  0  0  0
   13.5928  -23.1342  -18.8756 H   0  0  0  0  0  0  0  0  0  0  0  0
   16.3880  -23.2971  -14.4974 H   0  0  0  0  0  0  0  0  0  0  0  0
   16.2835  -25.6682  -17.4433 H   0  0  0  0  0  0  0  0  0  0  0  0
   16.8855  -23.6044  -15.3589 H   0  0  0  0  0  0  0  0  0  0  0  0
   17.4303  -23.3383  -14.8532 H   0  0  0  0  0  0  0  0  0  0  0  0
   18.4005  -23.0677  -12.7875 H   0  0  0  0  0  0  0  0  0  0  0  0
   20.2585  -25.6946  -11.3576 H   0  0  0  0  0  0  0  0  0  0  0  0
   20.5009  -27.6796  -12.4899 H   0  0  0  0  0  0  0  0  0  0  0  0
   19.3758  -27.8096  -14.7375 H   0  0  0  0  0  0  0  0  0  0  0  0
   13.8209  -23.1652  -18.5481 H   0  0  0  0  0  0  0  0  0  0  0  0
  1  2  1  0
  2  3  1  0
  3  4  1  0
  4  5  1  0
  5  6  1  0
  6  7  1  0
  7  8  1  0
  7  9  1  0
  9 10  1  0
 10 11  1  0
 11 12  1  0
 12 13  1  0
 13 14  1  0
 14 15  1  0
 15 16  1  0
 16 17  1  0
 16 18  1  0
 18 19  1  0
 19 20  1  0
 20 21  1  0
 21 22  1  0
 22 23  1  0
 23 24  1  0
 13 25  1  0
 25  3  1  0
 25  4  1  0
 11  9  1  0
 16 14  1  0
 22 20  1  0
 12  9  1  0
 24 20  1  0
 24 22  1  0
  1 26  1  0
  1 27  1  0
  1 28  1  0
  2 29  1  0
  2 30  1  0
  3 31  1  0
  4 32  1  0
  5 33  1  0
  5 34  1  0
  6 35  1  0
  6 36  1  0
  7 37  1  0
  8 38  1  0
  8 39  1  0
  8 40  1  0
 10 41  1  0
 10 42  1  0
 11 43  1  0
 12 44  1  0
 13 45  1  0
 14 46  1  0
 17 47  1  0
 18 48  1  0
 18 49  1  0
 21 50  1  0
 21 51  1  0
 23 52  1  0
 23 53  1  0
 24 54  1  0
 25 55  1  0
M  END
