
     RDKit          2D

 46 51  0  0  0  0  0  0  0  0999 V2000
   15.9609  -24.2516   -3.6596 C   0  0  0  0  0  0  0  0  0  0  0  0
   16.9643  -24.6066   -4.7164 C   0  0  0  0  0  0  0  0  0  0  0  0
   16.4224  -23.8122   -5.8676 C   0  0  0  0  0  0  0  0  0  0  0  0
   16.2943  -23.2369   -7.2469 C   0  0  0  0  0  0  0  0  0  0  0  0
   15.0581  -22.4061   -7.0689 C   0  0  0  0  0  0  0  0  0  0  0  0
   14.3639  -22.3698   -5.7397 C   0  0  0  0  0  0  0  0  0  0  0  0
   13.3260  -21.3225   -5.4640 C   0  0  0  0  0  0  0  0  0  0  0  0
   12.6318  -21.2862   -4.1348 C   0  0  0  0  0  0  0  0  0  0  0  0
   11.7066  -20.8457   -3.0394 C   0  0  0  0  0  0  0  0  0  0  0  0
   11.7257  -20.1096   -4.3462 C   0  0  0  0  0  0  0  0  0  0  0  0
   14.5161  -21.6117   -8.2200 C   0  0  0  0  0  0  0  0  0  0  0  0
   14.6040  -21.1739   -9.6520 N   0  0  0  0  0  0  0  0  0  0  0  0
   15.8402  -22.0047   -9.8300 C   0  0  0  0  0  0  0  0  0  0  0  0
   15.7523  -22.4424   -8.3981 C   0  0  0  0  0  0  0  0  0  0  0  0
   17.6585  -24.6429   -6.0456 C   0  0  0  0  0  0  0  0  0  0  0  0
   18.7902  -25.5733   -5.7231 C   0  0  0  0  0  0  0  0  0  0  0  0
   17.9598  -24.3561   -7.4868 N   0  0  0  0  0  0  0  0  0  0  0  0
   17.3786  -25.2257   -8.5620 C   0  0  0  0  0  0  0  0  0  0  0  0
   17.0663  -25.7579   -9.9292 C   0  0  0  0  0  0  0  0  0  0  0  0
   17.9508  -24.5561   -9.7762 C   0  0  0  0  0  0  0  0  0  0  0  0
   14.9574  -23.8966   -2.6027 H   0  0  0  0  0  0  0  0  0  0  0  0
   15.0990  -23.8865   -4.2249 H   0  0  0  0  0  0  0  0  0  0  0  0
   16.9291  -24.6793   -2.5967 H   0  0  0  0  0  0  0  0  0  0  0  0
   17.6652  -25.4046   -3.8831 H   0  0  0  0  0  0  0  0  0  0  0  0
   15.3498  -23.2443   -5.2762 H   0  0  0  0  0  0  0  0  0  0  0  0
   16.8792  -23.4375   -7.8811 H   0  0  0  0  0  0  0  0  0  0  0  0
   14.4379  -23.0418   -4.7301 H   0  0  0  0  0  0  0  0  0  0  0  0
   12.9824  -20.3115   -6.5174 H   0  0  0  0  0  0  0  0  0  0  0  0
   13.2967  -22.4503   -3.4617 H   0  0  0  0  0  0  0  0  0  0  0  0
   12.0503  -21.8567   -1.9859 H   0  0  0  0  0  0  0  0  0  0  0  0
   10.6621  -20.0540   -2.3098 H   0  0  0  0  0  0  0  0  0  0  0  0
   10.6879  -19.0623   -4.0704 H   0  0  0  0  0  0  0  0  0  0  0  0
   12.1053  -19.7373   -5.7488 H   0  0  0  0  0  0  0  0  0  0  0  0
   13.2993  -20.9225   -7.6774 H   0  0  0  0  0  0  0  0  0  0  0  0
   13.7921  -20.2771  -10.5388 H   0  0  0  0  0  0  0  0  0  0  0  0
   17.0764  -22.8354  -10.0081 H   0  0  0  0  0  0  0  0  0  0  0  0
   15.9282  -21.5670  -11.2621 H   0  0  0  0  0  0  0  0  0  0  0  0
   19.9218  -26.5037   -5.4007 H   0  0  0  0  0  0  0  0  0  0  0  0
   19.4380  -25.5490   -7.0759 H   0  0  0  0  0  0  0  0  0  0  0  0
   18.4554  -25.7993   -4.4350 H   0  0  0  0  0  0  0  0  0  0  0  0
   18.4148  -23.7679   -7.7740 H   0  0  0  0  0  0  0  0  0  0  0  0
   16.5551  -26.2769   -7.8786 H   0  0  0  0  0  0  0  0  0  0  0  0
   16.1839  -26.9143   -9.5632 H   0  0  0  0  0  0  0  0  0  0  0  0
   17.0604  -25.8884  -11.4235 H   0  0  0  0  0  0  0  0  0  0  0  0
   18.2521  -24.2693  -11.2173 H   0  0  0  0  0  0  0  0  0  0  0  0
   18.7306  -23.4540   -9.1227 H   0  0  0  0  0  0  0  0  0  0  0  0
  1  2  1  0
  2  3  1  0
  3  4  1  0
  4  5  1  0
  5  6  1  6
  6  7  2  3
  7  8  1  0
  8  9  1  0
  9 10  1  0
  5 11  1  0
 11 12  1  0
 12 13  1  0
 14 13  1  1
  3 15  1  0
 15 16  1  0
 15 17  1  1
 17 18  1  0
 18 19  1  0
 19 20  1  0
 15  2  1  0
 20 18  1  0
 14  4  1  0
 14  5  1  0
 10  8  1  0
 14 11  1  0
  1 21  1  0
  1 22  1  0
  1 23  1  0
  2 24  1  1
  3 25  1  6
  4 26  1  1
  6 27  1  0
  7 28  1  0
  8 29  1  0
  9 30  1  0
  9 31  1  0
 10 32  1  0
 10 33  1  0
 11 34  1  1
 12 35  1  0
 13 36  1  0
 13 37  1  0
 16 38  1  0
 16 39  1  0
 16 40  1  0
 17 41  1  0
 18 42  1  0
 19 43  1  0
 19 44  1  0
 20 45  1  0
 20 46  1  0
M  END
