
     RDKit          2D

 36 36  0  0  0  0  0  0  0  0999 V2000
   20.0242  -10.4176   -6.2234 C   0  0  0  0  0  0  0  0  0  0  0  0
   20.1191   -9.0040   -5.7304 C   0  0  0  0  0  0  0  0  0  0  0  0
   20.2139   -7.5906   -5.2374 C   0  0  0  0  0  0  0  0  0  0  0  0
   20.3088   -6.1771   -4.7444 C   0  0  0  0  0  0  0  0  0  0  0  0
   20.4036   -4.7635   -4.2514 C   0  0  0  0  0  0  0  0  0  0  0  0
   20.4984   -3.3502   -3.7584 C   0  0  0  0  0  0  0  0  0  0  0  0
   20.5933   -1.9366   -3.2654 C   0  0  0  0  0  0  0  0  0  0  0  0
   20.6881   -0.5231   -2.7724 C   0  0  0  0  0  0  0  0  0  0  0  0
   20.7830    0.8903   -2.2794 C   0  0  0  0  0  0  0  0  0  0  0  0
   20.8778    2.3039   -1.7864 C   0  0  0  0  0  0  0  0  0  0  0  0
   19.6109    2.8655   -2.3604 C   0  0  0  0  0  0  0  0  0  0  0  0
   20.5212    3.7419   -1.5522 C   0  0  0  0  0  0  0  0  0  0  0  0
   19.9294  -11.8311   -6.7164 H   0  0  0  0  0  0  0  0  0  0  0  0
   21.3274  -10.7387   -5.5535 H   0  0  0  0  0  0  0  0  0  0  0  0
   18.7211  -10.0965   -6.8933 H   0  0  0  0  0  0  0  0  0  0  0  0
   21.4204   -9.3261   -5.0574 H   0  0  0  0  0  0  0  0  0  0  0  0
   18.8178   -8.6821   -6.4033 H   0  0  0  0  0  0  0  0  0  0  0  0
   18.9093   -7.2703   -5.9049 H   0  0  0  0  0  0  0  0  0  0  0  0
   21.5185   -7.9108   -4.5699 H   0  0  0  0  0  0  0  0  0  0  0  0
   21.6013   -6.5036   -4.0568 H   0  0  0  0  0  0  0  0  0  0  0  0
   19.0162   -5.8505   -5.4320 H   0  0  0  0  0  0  0  0  0  0  0  0
   19.1024   -4.4415   -4.9245 H   0  0  0  0  0  0  0  0  0  0  0  0
   21.7048   -5.0857   -3.5783 H   0  0  0  0  0  0  0  0  0  0  0  0
   21.8004   -3.6717   -3.0866 H   0  0  0  0  0  0  0  0  0  0  0  0
   19.1965   -3.0284   -4.4302 H   0  0  0  0  0  0  0  0  0  0  0  0
   19.7778   -1.4735   -4.4361 H   0  0  0  0  0  0  0  0  0  0  0  0
   21.4088   -2.3997   -2.0946 H   0  0  0  0  0  0  0  0  0  0  0  0
   21.9919   -0.8438   -2.1036 H   0  0  0  0  0  0  0  0  0  0  0  0
   19.3843   -0.2024   -3.4412 H   0  0  0  0  0  0  0  0  0  0  0  0
   22.0856    0.5691   -1.6086 H   0  0  0  0  0  0  0  0  0  0  0  0
   19.6090    1.0224   -2.9326 H   0  0  0  0  0  0  0  0  0  0  0  0
   22.1777    2.2331   -1.0412 H   0  0  0  0  0  0  0  0  0  0  0  0
   18.5298    3.8503   -2.6940 H   0  0  0  0  0  0  0  0  0  0  0  0
   19.0024    1.8632   -3.0295 H   0  0  0  0  0  0  0  0  0  0  0  0
   21.6972    4.1706   -0.7257 H   0  0  0  0  0  0  0  0  0  0  0  0
   19.7562    5.0311   -1.6051 H   0  0  0  0  0  0  0  0  0  0  0  0
  1  2  1  0
  2  3  1  0
  3  4  1  0
  4  5  1  0
  5  6  1  0
  6  7  1  0
  7  8  1  0
  8  9  1  0
  9 10  1  0
 10 11  1  0
 11 12  1  0
 12 10  1  0
  1 13  1  0
  1 14  1  0
  1 15  1  0
  2 16  1  0
  2 17  1  0
  3 18  1  0
  3 19  1  0
  4 20  1  0
  4 21  1  0
  5 22  1  0
  5 23  1  0
  6 24  1  0
  6 25  1  0
  7 26  1  0
  7 27  1  0
  8 28  1  0
  8 29  1  0
  9 30  1  0
  9 31  1  0
 10 32  1  0
 11 33  1  0
 11 34  1  0
 12 35  1  0
 12 36  1  0
M  END
