
     RDKit          2D

 57 60  0  0  0  0  0  0  0  0999 V2000
    1.2149   28.3516    3.0802 C   0  0  0  0  0  0  0  0  0  0  0  0
    0.8943   27.2302    4.0234 C   0  0  0  0  0  0  0  0  0  0  0  0
   -0.5909   27.4048    4.1403 C   0  0  0  0  0  0  0  0  0  0  0  0
    0.0966   26.3047    4.8935 C   0  0  0  0  0  0  0  0  0  0  0  0
    1.1933   25.4194    5.4063 C   0  0  0  0  0  0  0  0  0  0  0  0
    2.2902   24.5339    5.9192 C   0  0  0  0  0  0  0  0  0  0  0  0
    3.3870   23.6485    6.4321 C   0  0  0  0  0  0  0  0  0  0  0  0
    3.3133   25.4914    5.3842 C   0  0  0  0  0  0  0  0  0  0  0  0
    4.3365   26.4490    4.8492 C   0  0  0  0  0  0  0  0  0  0  0  0
    5.3597   27.4066    4.3141 N   0  0  0  0  0  0  0  0  0  0  0  0
    6.8211   27.1185    4.4908 N   0  0  0  0  0  0  0  0  0  0  0  0
    0.1897   24.6345    6.1979 C   0  0  0  0  0  0  0  0  0  0  0  0
   -0.8140   23.8496    6.9895 C   0  0  0  0  0  0  0  0  0  0  0  0
    0.2822   22.9613    7.4987 C   0  0  0  0  0  0  0  0  0  0  0  0
   -0.7215   22.1765    8.2903 C   0  0  0  0  0  0  0  0  0  0  0  0
   -1.8177   23.0648    7.7811 C   0  0  0  0  0  0  0  0  0  0  0  0
   -0.9070   25.5205    5.6858 C   0  0  0  0  0  0  0  0  0  0  0  0
   -2.0860   24.9014    6.3764 C   0  0  0  0  0  0  0  0  0  0  0  0
   -3.4274   24.5056    6.9185 C   0  0  0  0  0  0  0  0  0  0  0  0
   -4.4514   25.4442    6.3524 N   0  0  0  0  0  0  0  0  0  0  0  0
   -3.7428   26.4200    5.4604 C   0  0  0  0  0  0  0  0  0  0  0  0
   -2.2808   26.0845    5.4753 C   0  0  0  0  0  0  0  0  0  0  0  0
    1.5355   29.4730    2.1369 H   0  0  0  0  0  0  0  0  0  0  0  0
    2.6669   27.9785    3.1302 H   0  0  0  0  0  0  0  0  0  0  0  0
   -0.0470   28.8079    2.9320 H   0  0  0  0  0  0  0  0  0  0  0  0
    2.3648   26.9345    4.0050 H   0  0  0  0  0  0  0  0  0  0  0  0
   -2.0524   27.3118    4.4650 H   0  0  0  0  0  0  0  0  0  0  0  0
   -0.9270   28.4572    3.3645 H   0  0  0  0  0  0  0  0  0  0  0  0
   -0.6277   26.1157    5.1677 H   0  0  0  0  0  0  0  0  0  0  0  0
    2.1970   26.2041    4.6148 H   0  0  0  0  0  0  0  0  0  0  0  0
    3.0175   25.6772    5.2760 H   0  0  0  0  0  0  0  0  0  0  0  0
    4.4838   22.7631    6.9449 H   0  0  0  0  0  0  0  0  0  0  0  0
    4.5158   24.3144    5.7024 H   0  0  0  0  0  0  0  0  0  0  0  0
    2.3844   22.8688    7.2302 H   0  0  0  0  0  0  0  0  0  0  0  0
    4.5267   24.7264    5.8229 H   0  0  0  0  0  0  0  0  0  0  0  0
    2.4967   26.5851    4.7621 H   0  0  0  0  0  0  0  0  0  0  0  0
    5.2898   26.0346    5.9306 H   0  0  0  0  0  0  0  0  0  0  0  0
    3.3832   26.8634    3.7677 H   0  0  0  0  0  0  0  0  0  0  0  0
    4.9213   28.6521    3.6025 H   0  0  0  0  0  0  0  0  0  0  0  0
    7.8443   28.0761    3.9557 H   0  0  0  0  0  0  0  0  0  0  0  0
    7.2594   25.8730    5.2024 H   0  0  0  0  0  0  0  0  0  0  0  0
    1.4005   23.8508    6.6098 H   0  0  0  0  0  0  0  0  0  0  0  0
    0.4924   23.1776    7.2920 H   0  0  0  0  0  0  0  0  0  0  0  0
    1.3783   22.0730    8.0078 H   0  0  0  0  0  0  0  0  0  0  0  0
    1.4120   23.6320    6.7751 H   0  0  0  0  0  0  0  0  0  0  0  0
   -1.7252   21.3916    9.0819 H   0  0  0  0  0  0  0  0  0  0  0  0
    0.3746   21.2881    8.7994 H   0  0  0  0  0  0  0  0  0  0  0  0
   -3.0281   23.8508    7.3722 H   0  0  0  0  0  0  0  0  0  0  0  0
   -2.8215   22.2799    8.5727 H   0  0  0  0  0  0  0  0  0  0  0  0
   -0.4362   26.5978    4.7543 H   0  0  0  0  0  0  0  0  0  0  0  0
   -1.6381   23.7416    7.2158 H   0  0  0  0  0  0  0  0  0  0  0  0
   -2.8100   23.3834    7.6992 H   0  0  0  0  0  0  0  0  0  0  0  0
   -4.6063   23.8865    7.6091 H   0  0  0  0  0  0  0  0  0  0  0  0
   -5.9252   25.4124    6.6296 H   0  0  0  0  0  0  0  0  0  0  0  0
   -5.1167   26.9841    5.2499 H   0  0  0  0  0  0  0  0  0  0  0  0
   -3.3215   27.5138    4.5244 H   0  0  0  0  0  0  0  0  0  0  0  0
   -2.0365   27.2253    4.5325 H   0  0  0  0  0  0  0  0  0  0  0  0
  1  2  1  0
  2  3  1  0
  3  4  1  0
  4  5  1  0
  5  6  1  0
  6  7  1  0
  6  8  1  0
  8  9  1  0
  9 10  1  0
 10 11  1  0
  5 12  1  0
 12 13  1  0
 13 14  1  0
 14 15  1  0
 15 16  1  0
 12 17  1  0
 17 18  1  0
 18 19  1  0
 19 20  1  0
 20 21  1  0
 21 22  1  0
  4  2  1  0
 16 13  1  0
 22 17  1  0
 22 18  1  0
  1 23  1  0
  1 24  1  0
  1 25  1  0
  2 26  1  0
  3 27  1  0
  3 28  1  0
  4 29  1  0
  5 30  1  0
  6 31  1  0
  7 32  1  0
  7 33  1  0
  7 34  1  0
  8 35  1  0
  8 36  1  0
  9 37  1  0
  9 38  1  0
 10 39  1  0
 11 40  1  0
 11 41  1  0
 12 42  1  0
 13 43  1  0
 14 44  1  0
 14 45  1  0
 15 46  1  0
 15 47  1  0
 16 48  1  0
 16 49  1  0
 17 50  1  0
 18 51  1  0
 19 52  1  0
 19 53  1  0
 20 54  1  0
 21 55  1  0
 21 56  1  0
 22 57  1  0
M  END
