
     RDKit          2D

 66 73  0  0  0  0  0  0  0  0999 V2000
    1.7391   28.9098    1.0409 C   0  0  0  0  0  0  0  0  0  0  0  0
    0.5532   28.8944    1.9594 C   0  0  0  0  0  0  0  0  0  0  0  0
   -0.6326   28.8791    2.8778 C   0  0  0  0  0  0  0  0  0  0  0  0
   -1.8184   28.8636    3.7964 C   0  0  0  0  0  0  0  0  0  0  0  0
   -2.4648   27.4074    5.4901 C   0  0  0  0  0  0  0  0  0  0  0  0
   -3.6347   27.3543    6.4275 C   0  0  0  0  0  0  0  0  0  0  0  0
   -2.1275   26.1635    6.2575 C   0  0  0  0  0  0  0  0  0  0  0  0
   -2.2370   25.0512    7.2579 C   0  0  0  0  0  0  0  0  0  0  0  0
   -2.3466   23.9389    8.2582 C   0  0  0  0  0  0  0  0  0  0  0  0
   -2.8899   23.0923    9.3708 C   0  0  0  0  0  0  0  0  0  0  0  0
   -3.6336   24.3177    8.9290 C   0  0  0  0  0  0  0  0  0  0  0  0
   -4.8034   24.2645    9.8664 C   0  0  0  0  0  0  0  0  0  0  0  0
   -5.9733   24.2115   10.8038 C   0  0  0  0  0  0  0  0  0  0  0  0
   -5.3544   25.5160    9.2498 C   0  0  0  0  0  0  0  0  0  0  0  0
   -4.2524   23.0131   10.4830 C   0  0  0  0  0  0  0  0  0  0  0  0
   -0.8785   25.3984    5.9340 C   0  0  0  0  0  0  0  0  0  0  0  0
    0.4126   24.8678    5.3850 C   0  0  0  0  0  0  0  0  0  0  0  0
    1.2583   25.4261    4.2790 C   0  0  0  0  0  0  0  0  0  0  0  0
    1.0216   26.6529    3.4488 N   0  0  0  0  0  0  0  0  0  0  0  0
   -0.1192   27.6243    3.5197 C   0  0  0  0  0  0  0  0  0  0  0  0
   -1.3050   27.6089    4.4381 C   0  0  0  0  0  0  0  0  0  0  0  0
   -1.6429   26.6182    5.5126 C   0  0  0  0  0  0  0  0  0  0  0  0
    0.9769   27.8265    2.5158 C   0  0  0  0  0  0  0  0  0  0  0  0
    0.9322   29.0002    1.5828 C   0  0  0  0  0  0  0  0  0  0  0  0
    2.0282   29.2024    0.5789 C   0  0  0  0  0  0  0  0  0  0  0  0
    3.1690   28.2310    0.5081 C   0  0  0  0  0  0  0  0  0  0  0  0
    2.0729   28.0287    1.5120 C   0  0  0  0  0  0  0  0  0  0  0  0
    2.9248   28.9253    0.1224 H   0  0  0  0  0  0  0  0  0  0  0  0
    1.2279   30.1671    0.4021 H   0  0  0  0  0  0  0  0  0  0  0  0
    2.5218   27.6937    1.4385 H   0  0  0  0  0  0  0  0  0  0  0  0
    1.3335   27.6755    2.3536 H   0  0  0  0  0  0  0  0  0  0  0  0
   -0.0960   30.1432    1.4408 H   0  0  0  0  0  0  0  0  0  0  0  0
   -1.1460   30.1338    2.2361 H   0  0  0  0  0  0  0  0  0  0  0  0
   -3.0200   29.7400    3.9920 H   0  0  0  0  0  0  0  0  0  0  0  0
   -3.3318   28.5908    5.1771 H   0  0  0  0  0  0  0  0  0  0  0  0
   -4.8045   27.3012    7.3648 H   0  0  0  0  0  0  0  0  0  0  0  0
   -4.1819   28.6099    5.8157 H   0  0  0  0  0  0  0  0  0  0  0  0
   -3.3868   26.1233    7.2479 H   0  0  0  0  0  0  0  0  0  0  0  0
   -3.3908   26.3937    7.0328 H   0  0  0  0  0  0  0  0  0  0  0  0
   -3.4587   25.8851    7.5070 H   0  0  0  0  0  0  0  0  0  0  0  0
   -0.9735   24.3379    6.8772 H   0  0  0  0  0  0  0  0  0  0  0  0
   -1.0977   23.1737    7.9347 H   0  0  0  0  0  0  0  0  0  0  0  0
   -1.8297   22.0331    9.4338 H   0  0  0  0  0  0  0  0  0  0  0  0
   -3.5528   22.3471   10.4913 H   0  0  0  0  0  0  0  0  0  0  0  0
   -3.9710   25.5616    8.1617 H   0  0  0  0  0  0  0  0  0  0  0  0
   -7.1431   24.1583   11.7411 H   0  0  0  0  0  0  0  0  0  0  0  0
   -5.5687   22.9633   11.5306 H   0  0  0  0  0  0  0  0  0  0  0  0
   -6.6632   25.4467   10.3055 H   0  0  0  0  0  0  0  0  0  0  0  0
   -5.9054   26.7675    8.6332 H   0  0  0  0  0  0  0  0  0  0  0  0
   -6.6950   25.4760    9.9215 H   0  0  0  0  0  0  0  0  0  0  0  0
   -4.2429   26.0072    8.3705 H   0  0  0  0  0  0  0  0  0  0  0  0
   -3.7015   21.7616   11.0997 H   0  0  0  0  0  0  0  0  0  0  0  0
   -5.2643   22.8908   11.5836 H   0  0  0  0  0  0  0  0  0  0  0  0
   -3.0644   22.6807    9.6299 H   0  0  0  0  0  0  0  0  0  0  0  0
   -1.3420   24.4915    7.0353 H   0  0  0  0  0  0  0  0  0  0  0  0
    0.0747   23.8772    6.4594 H   0  0  0  0  0  0  0  0  0  0  0  0
    1.4709   23.8069    5.4509 H   0  0  0  0  0  0  0  0  0  0  0  0
    2.1440   24.2512    4.5706 H   0  0  0  0  0  0  0  0  0  0  0  0
    2.4441   25.4415    3.3605 H   0  0  0  0  0  0  0  0  0  0  0  0
   -2.5938   28.0088    5.0931 H   0  0  0  0  0  0  0  0  0  0  0  0
   -2.9254   27.2404    5.9796 H   0  0  0  0  0  0  0  0  0  0  0  0
   -2.6014   26.2011    6.5885 H   0  0  0  0  0  0  0  0  0  0  0  0
   -0.1261   30.0611    1.5169 H   0  0  0  0  0  0  0  0  0  0  0  0
    1.9835   30.3761   -0.3541 H   0  0  0  0  0  0  0  0  0  0  0  0
    3.9648   28.8446   -0.6055 H   0  0  0  0  0  0  0  0  0  0  0  0
    4.0334   27.0465    0.8240 H   0  0  0  0  0  0  0  0  0  0  0  0
  1  2  1  0
  2  3  1  0
  3  4  1  0
  4  5  1  0
  5  6  1  0
  5  7  1  0
  7  8  1  0
  8  9  1  0
  9 10  1  0
 10 11  1  0
 11 12  1  0
 12 13  1  0
 12 14  1  0
 12 15  1  0
  7 16  1  0
 16 17  1  0
 17 18  1  0
 18 19  1  0
 19 20  1  0
 20 21  1  0
 21 22  1  0
 20 23  1  0
 23 24  1  0
 24 25  1  0
 25 26  1  0
 26 27  1  0
 20  3  1  0
 27 23  1  0
 21  4  1  0
 27 24  1  0
 11  9  1  0
 22 16  1  0
 27 25  1  0
 23 19  1  0
  1 28  1  0
  1 29  1  0
  1 30  1  0
  2 31  1  0
  2 32  1  0
  3 33  1  0
  4 34  1  0
  5 35  1  0
  6 36  1  0
  6 37  1  0
  6 38  1  0
  7 39  1  0
  8 40  1  0
  8 41  1  0
  9 42  1  0
 10 43  1  0
 10 44  1  0
 11 45  1  0
 13 46  1  0
 13 47  1  0
 13 48  1  0
 14 49  1  0
 14 50  1  0
 14 51  1  0
 15 52  1  0
 15 53  1  0
 15 54  1  0
 16 55  1  0
 17 56  1  0
 17 57  1  0
 18 58  1  0
 18 59  1  0
 21 60  1  0
 22 61  1  0
 22 62  1  0
 24 63  1  0
 25 64  1  0
 26 65  1  0
 26 66  1  0
M  END
