
     RDKit          2D

108116  0  0  0  0  0  0  0  0999 V2000
   18.9228  -20.7826  -20.4400 C   0  0  0  0  0  0  0  0  0  0  0  0
   18.9034  -21.8784  -19.4159 C   0  0  0  0  0  0  0  0  0  0  0  0
   19.5391  -21.6626  -18.0745 C   0  0  0  0  0  0  0  0  0  0  0  0
   19.0854  -23.0674  -17.8088 B   0  0  0  0  0  0  0  0  0  0  0  0
   19.5077  -23.4356  -16.4174 C   0  0  0  0  0  0  0  0  0  0  0  0
   20.2224  -22.2583  -15.8231 C   0  0  0  0  0  0  0  0  0  0  0  0
   20.9656  -21.2668  -14.9778 C   0  0  0  0  0  0  0  0  0  0  0  0
   21.7087  -20.2753  -14.1325 C   0  0  0  0  0  0  0  0  0  0  0  0
   22.4519  -19.2838  -13.2871 C   0  0  0  0  0  0  0  0  0  0  0  0
   23.1951  -18.2922  -12.4418 C   0  0  0  0  0  0  0  0  0  0  0  0
   21.7642  -21.2716  -13.0125 C   0  0  0  0  0  0  0  0  0  0  0  0
   21.8197  -22.2680  -11.8926 C   0  0  0  0  0  0  0  0  0  0  0  0
   21.8751  -23.2643  -10.7727 C   0  0  0  0  0  0  0  0  0  0  0  0
   21.9305  -24.2607   -9.6528 C   0  0  0  0  0  0  0  0  0  0  0  0
   21.9860  -25.2571   -8.5328 C   0  0  0  0  0  0  0  0  0  0  0  0
   20.8876  -25.3001   -7.5122 C   0  0  0  0  0  0  0  0  0  0  0  0
   19.7892  -25.3431   -6.4916 C   0  0  0  0  0  0  0  0  0  0  0  0
   18.6352  -24.3898   -6.5909 C   0  0  0  0  0  0  0  0  0  0  0  0
   17.4814  -23.4366   -6.6902 C   0  0  0  0  0  0  0  0  0  0  0  0
   16.3276  -22.4832   -6.7896 C   0  0  0  0  0  0  0  0  0  0  0  0
   15.1738  -21.5300   -6.8889 C   0  0  0  0  0  0  0  0  0  0  0  0
   14.0199  -20.5766   -6.9882 C   0  0  0  0  0  0  0  0  0  0  0  0
   13.2415  -19.4574   -7.6138 C   0  0  0  0  0  0  0  0  0  0  0  0
   11.9407  -18.8589   -7.1671 C   0  0  0  0  0  0  0  0  0  0  0  0
   11.1513  -19.3100   -5.9406 C   0  0  0  0  0  0  0  0  0  0  0  0
   12.3469  -20.2158   -5.9340 C   0  0  0  0  0  0  0  0  0  0  0  0
   11.3038  -20.3428   -4.8636 C   0  0  0  0  0  0  0  0  0  0  0  0
   12.4994  -21.2486   -4.8569 C   0  0  0  0  0  0  0  0  0  0  0  0
   13.6896  -21.3738   -5.7613 C   0  0  0  0  0  0  0  0  0  0  0  0
   13.9382  -22.4374   -4.7331 C   0  0  0  0  0  0  0  0  0  0  0  0
   12.9572  -22.6463   -3.6178 C   0  0  0  0  0  0  0  0  0  0  0  0
   14.1868  -23.5009   -3.7050 C   0  0  0  0  0  0  0  0  0  0  0  0
   14.6954  -24.6187   -2.8436 C   0  0  0  0  0  0  0  0  0  0  0  0
   13.4520  -24.3591   -2.0457 C   0  0  0  0  0  0  0  0  0  0  0  0
   15.9907  -25.1006   -3.4266 C   0  0  0  0  0  0  0  0  0  0  0  0
   15.9685  -26.0634   -2.2767 C   0  0  0  0  0  0  0  0  0  0  0  0
   14.6843  -25.6537   -1.6186 O   0  0  0  0  0  0  0  0  0  0  0  0
   17.2450  -26.8075   -2.5352 C   0  0  0  0  0  0  0  0  0  0  0  0
   18.2268  -27.8751   -2.1525 C   0  0  0  0  0  0  0  0  0  0  0  0
   17.3740  -28.2361   -0.9724 O   0  0  0  0  0  0  0  0  0  0  0  0
   16.3923  -27.1685   -1.3551 C   0  0  0  0  0  0  0  0  0  0  0  0
   16.2827  -24.2807   -4.6483 C   0  0  0  0  0  0  0  0  0  0  0  0
   17.5124  -25.1353   -4.7355 C   0  0  0  0  0  0  0  0  0  0  0  0
   15.1678  -23.2920   -4.8203 C   0  0  0  0  0  0  0  0  0  0  0  0
   20.2418  -21.1625  -16.8473 C   0  0  0  0  0  0  0  0  0  0  0  0
   18.2871  -20.9984  -21.7815 H   0  0  0  0  0  0  0  0  0  0  0  0
   19.5778  -19.4710  -20.1227 H   0  0  0  0  0  0  0  0  0  0  0  0
   18.2484  -23.1899  -19.7331 H   0  0  0  0  0  0  0  0  0  0  0  0
   19.8599  -20.3029  -18.6206 H   0  0  0  0  0  0  0  0  0  0  0  0
   18.3401  -23.9492  -18.7664 H   0  0  0  0  0  0  0  0  0  0  0  0
   19.7930  -24.0780  -15.0923 H   0  0  0  0  0  0  0  0  0  0  0  0
   18.8526  -24.7471  -16.7346 H   0  0  0  0  0  0  0  0  0  0  0  0
   20.3584  -23.1469  -14.6222 H   0  0  0  0  0  0  0  0  0  0  0  0
   20.9471  -21.9231  -14.3833 H   0  0  0  0  0  0  0  0  0  0  0  0
   20.9969  -20.1553  -15.9845 H   0  0  0  0  0  0  0  0  0  0  0  0
   21.6533  -19.2789  -15.2524 H   0  0  0  0  0  0  0  0  0  0  0  0
   22.3941  -18.2864  -14.4061 H   0  0  0  0  0  0  0  0  0  0  0  0
   22.5393  -19.7969  -12.5705 H   0  0  0  0  0  0  0  0  0  0  0  0
   23.9383  -17.3007  -11.5965 H   0  0  0  0  0  0  0  0  0  0  0  0
   23.1312  -17.2924  -13.5582 H   0  0  0  0  0  0  0  0  0  0  0  0
   23.2590  -19.2920  -11.3254 H   0  0  0  0  0  0  0  0  0  0  0  0
   21.3317  -21.9241  -13.4269 H   0  0  0  0  0  0  0  0  0  0  0  0
   22.2047  -20.7626  -12.4369 H   0  0  0  0  0  0  0  0  0  0  0  0
   22.5629  -21.2765  -11.0473 H   0  0  0  0  0  0  0  0  0  0  0  0
   21.0764  -23.2595  -12.7379 H   0  0  0  0  0  0  0  0  0  0  0  0
   21.1275  -24.2541  -11.6162 H   0  0  0  0  0  0  0  0  0  0  0  0
   22.6227  -22.2746   -9.9292 H   0  0  0  0  0  0  0  0  0  0  0  0
   21.1812  -25.2497  -10.4955 H   0  0  0  0  0  0  0  0  0  0  0  0
   22.6799  -23.2716   -8.8100 H   0  0  0  0  0  0  0  0  0  0  0  0
   23.1398  -26.2103   -8.4335 H   0  0  0  0  0  0  0  0  0  0  0  0
   19.8445  -26.3394   -5.3717 H   0  0  0  0  0  0  0  0  0  0  0  0
   17.9742  -24.8167   -5.4940 H   0  0  0  0  0  0  0  0  0  0  0  0
   19.2336  -23.7948   -7.8311 H   0  0  0  0  0  0  0  0  0  0  0  0
   16.7436  -23.9153   -5.4752 H   0  0  0  0  0  0  0  0  0  0  0  0
   18.0831  -22.8370   -7.9267 H   0  0  0  0  0  0  0  0  0  0  0  0
   15.5950  -22.9550   -5.5687 H   0  0  0  0  0  0  0  0  0  0  0  0
   16.9240  -21.8908   -8.0318 H   0  0  0  0  0  0  0  0  0  0  0  0
   14.7188  -22.2390   -5.6477 H   0  0  0  0  0  0  0  0  0  0  0  0
   15.7737  -20.9326   -8.1271 H   0  0  0  0  0  0  0  0  0  0  0  0
   14.9782  -20.3361   -8.1168 H   0  0  0  0  0  0  0  0  0  0  0  0
   14.3587  -19.4452   -8.6148 H   0  0  0  0  0  0  0  0  0  0  0  0
   13.1505  -18.4470   -8.7187 H   0  0  0  0  0  0  0  0  0  0  0  0
   12.1151  -17.9706   -8.3632 H   0  0  0  0  0  0  0  0  0  0  0  0
   10.8689  -17.8395   -7.4164 H   0  0  0  0  0  0  0  0  0  0  0  0
   10.2517  -18.2146   -6.4312 H   0  0  0  0  0  0  0  0  0  0  0  0
   13.0142  -19.8965   -6.8978 H   0  0  0  0  0  0  0  0  0  0  0  0
   10.2606  -20.4699   -3.7933 H   0  0  0  0  0  0  0  0  0  0  0  0
   12.9066  -22.1531   -4.1554 H   0  0  0  0  0  0  0  0  0  0  0  0
   14.9756  -22.0842   -6.0637 H   0  0  0  0  0  0  0  0  0  0  0  0
   11.9463  -21.5919   -3.9591 H   0  0  0  0  0  0  0  0  0  0  0  0
   12.3272  -23.2214   -2.3839 H   0  0  0  0  0  0  0  0  0  0  0  0
   14.6278  -25.5605   -1.6780 H   0  0  0  0  0  0  0  0  0  0  0  0
   12.2087  -24.0995   -1.2478 H   0  0  0  0  0  0  0  0  0  0  0  0
   13.8327  -25.4558   -1.0957 H   0  0  0  0  0  0  0  0  0  0  0  0
   13.0713  -23.2625   -2.9957 H   0  0  0  0  0  0  0  0  0  0  0  0
   17.2814  -25.7839   -3.7692 H   0  0  0  0  0  0  0  0  0  0  0  0
   14.2188  -26.3581   -0.3788 H   0  0  0  0  0  0  0  0  0  0  0  0
   17.8146  -26.1825   -3.7741 H   0  0  0  0  0  0  0  0  0  0  0  0
   19.2085  -28.9427   -1.7698 H   0  0  0  0  0  0  0  0  0  0  0  0
   19.0794  -27.5141   -3.3325 H   0  0  0  0  0  0  0  0  0  0  0  0
   15.3146  -27.2409   -0.3143 H   0  0  0  0  0  0  0  0  0  0  0  0
   16.6840  -23.5312   -5.8841 H   0  0  0  0  0  0  0  0  0  0  0  0
   18.7419  -25.9899   -4.8227 H   0  0  0  0  0  0  0  0  0  0  0  0
   17.7786  -24.3066   -5.9571 H   0  0  0  0  0  0  0  0  0  0  0  0
   17.0930  -25.8653   -3.4940 H   0  0  0  0  0  0  0  0  0  0  0  0
   15.5691  -22.5425   -6.0561 H   0  0  0  0  0  0  0  0  0  0  0  0
   20.4158  -19.9074  -17.6499 H   0  0  0  0  0  0  0  0  0  0  0  0
   20.9873  -20.2617  -15.9077 H   0  0  0  0  0  0  0  0  0  0  0  0
  1  2  2  3
  2  3  1  0
  3  4  1  0
  4  5  1  0
  5  6  1  0
  6  7  1  0
  7  8  1  0
  8  9  1  0
  9 10  1  0
  8 11  1  0
 11 12  1  0
 12 13  1  0
 13 14  1  0
 14 15  1  0
 15 16  2  0
 16 17  2  0
 17 18  1  0
 18 19  1  0
 19 20  1  0
 20 21  1  0
 21 22  1  0
 22 23  1  0
 23 24  1  0
 24 25  1  0
 25 26  1  0
 26 27  1  0
 27 28  1  0
 28 29  1  0
 29 30  1  0
 30 31  1  0
 31 32  1  0
 32 33  1  0
 33 34  1  0
 33 35  1  0
 35 36  1  0
 36 37  1  0
 36 38  1  0
 38 39  1  0
 39 40  1  0
 40 41  1  0
 35 42  1  0
 42 43  1  0
 42 44  1  0
  6 45  1  0
 45  3  1  0
 29 22  1  0
 32 30  1  0
 41 36  1  0
 27 25  1  0
 44 30  1  0
 28 26  1  0
 44 32  1  0
 41 38  1  0
  1 46  1  0
  1 47  1  0
  2 48  1  0
  3 49  1  0
  4 50  1  0
  5 51  1  0
  5 52  1  0
  6 53  1  0
  7 54  1  0
  7 55  1  0
  8 56  1  0
  9 57  1  0
  9 58  1  0
 10 59  1  0
 10 60  1  0
 10 61  1  0
 11 62  1  0
 11 63  1  0
 12 64  1  0
 12 65  1  0
 13 66  1  0
 13 67  1  0
 14 68  1  0
 14 69  1  0
 15 70  1  0
 17 71  1  0
 18 72  1  0
 18 73  1  0
 19 74  1  0
 19 75  1  0
 20 76  1  0
 20 77  1  0
 21 78  1  0
 21 79  1  0
 22 80  1  0
 23 81  1  0
 23 82  1  0
 24 83  1  0
 24 84  1  0
 25 85  1  0
 26 86  1  0
 27 87  1  0
 28 88  1  0
 29 89  1  0
 31 90  1  0
 31 91  1  0
 33 92  1  0
 34 93  1  0
 34 94  1  0
 34 95  1  0
 35 96  1  0
 37 97  1  0
 38 98  1  0
 39 99  1  0
 39100  1  0
 41101  1  0
 42102  1  0
 43103  1  0
 43104  1  0
 43105  1  0
 44106  1  0
 45107  1  0
 45108  1  0
M  END
