
     RDKit          2D

 99107  0  0  0  0  0  0  0  0999 V2000
   -9.3333   27.3974   16.5919 C   0  0  0  0  0  0  0  0  0  0  0  0
   -9.7814   26.9843   15.2213 C   0  0  0  0  0  0  0  0  0  0  0  0
   -8.9966   25.9640   14.4515 C   0  0  0  0  0  0  0  0  0  0  0  0
   -8.5435   24.6311   13.9337 S   0  0  0  0  0  0  0  0  0  0  0  0
   -7.4076   24.5524   12.9573 C   0  0  0  0  0  0  0  0  0  0  0  0
   -6.7247   25.8066   12.4985 C   0  0  0  0  0  0  0  0  0  0  0  0
   -6.0153   24.6949   11.7840 C   0  0  0  0  0  0  0  0  0  0  0  0
   -5.3059   23.5830   11.0694 O   0  0  0  0  0  0  0  0  0  0  0  0
   -5.7280   22.1605   11.2893 N   0  0  0  0  0  0  0  0  0  0  0  0
   -5.6747   26.4854   11.6698 C   0  0  0  0  0  0  0  0  0  0  0  0
   -4.6246   27.1642   10.8412 C   0  0  0  0  0  0  0  0  0  0  0  0
   -3.5746   27.8430   10.0126 C   0  0  0  0  0  0  0  0  0  0  0  0
   -2.5245   28.5217    9.1838 C   0  0  0  0  0  0  0  0  0  0  0  0
   -1.4744   29.2005    8.3552 C   0  0  0  0  0  0  0  0  0  0  0  0
   -3.4630   26.6195    9.1518 C   0  0  0  0  0  0  0  0  0  0  0  0
   -3.3515   25.3962    8.2910 C   0  0  0  0  0  0  0  0  0  0  0  0
   -3.2399   24.1728    7.4303 C   0  0  0  0  0  0  0  0  0  0  0  0
   -2.7761   23.2555    6.3378 C   0  0  0  0  0  0  0  0  0  0  0  0
   -2.1870   24.6291    6.4642 C   0  0  0  0  0  0  0  0  0  0  0  0
   -1.2224   24.6055    5.3158 C   0  0  0  0  0  0  0  0  0  0  0  0
   -1.4765   23.2236    4.7906 C   0  0  0  0  0  0  0  0  0  0  0  0
   -2.4475   22.2165    5.3319 O   0  0  0  0  0  0  0  0  0  0  0  0
   -0.7165   22.7230    3.5982 O   0  0  0  0  0  0  0  0  0  0  0  0
   -0.6333   25.9791    5.4422 C   0  0  0  0  0  0  0  0  0  0  0  0
   -0.1695   25.0618    4.3498 C   0  0  0  0  0  0  0  0  0  0  0  0
   -0.2419   23.7391    3.6461 C   0  0  0  0  0  0  0  0  0  0  0  0
    0.6337   23.4729    2.4577 C   0  0  0  0  0  0  0  0  0  0  0  0
    1.5094   23.2067    1.2692 C   0  0  0  0  0  0  0  0  0  0  0  0
    1.5818   24.5294    1.9729 C   0  0  0  0  0  0  0  0  0  0  0  0
    1.6541   25.8522    2.6765 C   0  0  0  0  0  0  0  0  0  0  0  0
    0.7785   26.1183    3.8650 N   0  0  0  0  0  0  0  0  0  0  0  0
    2.7070   26.3085    1.7105 C   0  0  0  0  0  0  0  0  0  0  0  0
    3.7211   27.1896    1.0434 N   0  0  0  0  0  0  0  0  0  0  0  0
    3.4670   25.8078    0.5182 C   0  0  0  0  0  0  0  0  0  0  0  0
    3.5786   24.5844   -0.3425 C   0  0  0  0  0  0  0  0  0  0  0  0
    2.9895   23.2107   -0.4689 C   0  0  0  0  0  0  0  0  0  0  0  0
    1.9754   22.3295    0.1982 C   0  0  0  0  0  0  0  0  0  0  0  0
    1.9030   21.0068   -0.5055 C   0  0  0  0  0  0  0  0  0  0  0  0
    2.5645   23.7032    0.3246 C   0  0  0  0  0  0  0  0  0  0  0  0
    1.0107   22.3532    1.3467 C   0  0  0  0  0  0  0  0  0  0  0  0
   -6.1278   27.8183   12.1875 C   0  0  0  0  0  0  0  0  0  0  0  0
   -7.1778   27.1396   13.0162 C   0  0  0  0  0  0  0  0  0  0  0  0
   -8.3137   27.2183   13.9927 C   0  0  0  0  0  0  0  0  0  0  0  0
   -7.9858   28.6756   13.8566 O   0  0  0  0  0  0  0  0  0  0  0  0
  -10.1183   28.4179   17.3618 H   0  0  0  0  0  0  0  0  0  0  0  0
   -8.1003   26.7902   17.1927 H   0  0  0  0  0  0  0  0  0  0  0  0
  -11.0290   27.6880   14.7757 H   0  0  0  0  0  0  0  0  0  0  0  0
   -9.9520   25.0641   15.1776 H   0  0  0  0  0  0  0  0  0  0  0  0
   -7.7355   23.0950   13.0933 H   0  0  0  0  0  0  0  0  0  0  0  0
   -6.9017   24.1547   12.4867 H   0  0  0  0  0  0  0  0  0  0  0  0
   -6.4417   24.0949   12.0902 H   0  0  0  0  0  0  0  0  0  0  0  0
   -5.0401   25.5527   11.0336 H   0  0  0  0  0  0  0  0  0  0  0  0
   -5.0186   21.0487   10.5748 H   0  0  0  0  0  0  0  0  0  0  0  0
   -6.8596   21.8499   12.2237 H   0  0  0  0  0  0  0  0  0  0  0  0
   -5.0970   25.2452   11.0550 H   0  0  0  0  0  0  0  0  0  0  0  0
   -5.1582   26.2687    9.7625 H   0  0  0  0  0  0  0  0  0  0  0  0
   -4.0910   28.0597   11.9198 H   0  0  0  0  0  0  0  0  0  0  0  0
   -3.6861   29.0664   10.8732 H   0  0  0  0  0  0  0  0  0  0  0  0
   -2.6371   29.7457   10.0436 H   0  0  0  0  0  0  0  0  0  0  0  0
   -2.2847   27.3897    8.2294 H   0  0  0  0  0  0  0  0  0  0  0  0
   -0.4244   29.8793    7.5265 H   0  0  0  0  0  0  0  0  0  0  0  0
   -1.4828   30.3660    9.2993 H   0  0  0  0  0  0  0  0  0  0  0  0
   -1.4661   28.0349    7.4111 H   0  0  0  0  0  0  0  0  0  0  0  0
   -2.4121   27.1467    8.2202 H   0  0  0  0  0  0  0  0  0  0  0  0
   -4.4867   25.7942    9.8735 H   0  0  0  0  0  0  0  0  0  0  0  0
   -2.1559   26.1161    7.7413 H   0  0  0  0  0  0  0  0  0  0  0  0
   -4.5697   24.8211    8.9506 H   0  0  0  0  0  0  0  0  0  0  0  0
   -4.2541   23.2916    8.0974 H   0  0  0  0  0  0  0  0  0  0  0  0
   -3.6292   22.0557    6.6256 H   0  0  0  0  0  0  0  0  0  0  0  0
   -2.1111   22.5992    5.1644 H   0  0  0  0  0  0  0  0  0  0  0  0
   -1.9329   26.0109    6.9895 H   0  0  0  0  0  0  0  0  0  0  0  0
   -0.9706   21.3411    3.0730 H   0  0  0  0  0  0  0  0  0  0  0  0
   -1.2984   26.6354    6.6157 H   0  0  0  0  0  0  0  0  0  0  0  0
    0.1377   27.2578    5.2980 H   0  0  0  0  0  0  0  0  0  0  0  0
   -0.4238   22.3759    3.0472 H   0  0  0  0  0  0  0  0  0  0  0  0
   -1.2972   23.1916    4.5606 H   0  0  0  0  0  0  0  0  0  0  0  0
    1.4555   21.8922    0.5487 H   0  0  0  0  0  0  0  0  0  0  0  0
    2.5647   23.7542    0.3547 H   0  0  0  0  0  0  0  0  0  0  0  0
    0.5427   23.7666    2.7399 H   0  0  0  0  0  0  0  0  0  0  0  0
    2.3729   27.1673    2.6155 H   0  0  0  0  0  0  0  0  0  0  0  0
    0.9787   27.4868    4.4456 H   0  0  0  0  0  0  0  0  0  0  0  0
    2.7242   27.6055    2.4637 H   0  0  0  0  0  0  0  0  0  0  0  0
    4.4534   28.4963    0.9615 H   0  0  0  0  0  0  0  0  0  0  0  0
    4.5199   26.2641   -0.4478 H   0  0  0  0  0  0  0  0  0  0  0  0
    4.6029   24.8040   -1.4161 H   0  0  0  0  0  0  0  0  0  0  0  0
    3.9973   23.3497   -1.5712 H   0  0  0  0  0  0  0  0  0  0  0  0
    3.1072   21.9913   -1.3345 H   0  0  0  0  0  0  0  0  0  0  0  0
    1.8306   19.6840   -1.2092 H   0  0  0  0  0  0  0  0  0  0  0  0
    1.2965   20.2308    0.6259 H   0  0  0  0  0  0  0  0  0  0  0  0
    2.4918   21.4604   -1.8084 H   0  0  0  0  0  0  0  0  0  0  0  0
    1.5108   23.2314    1.2823 H   0  0  0  0  0  0  0  0  0  0  0  0
    2.5755   24.9971    1.0832 H   0  0  0  0  0  0  0  0  0  0  0  0
    0.6279   20.9545    0.9628 H   0  0  0  0  0  0  0  0  0  0  0  0
   -0.0304   21.6041    2.1243 H   0  0  0  0  0  0  0  0  0  0  0  0
   -6.5808   29.1513   12.7052 H   0  0  0  0  0  0  0  0  0  0  0  0
   -5.1407   28.6545   11.4281 H   0  0  0  0  0  0  0  0  0  0  0  0
   -7.0649   28.6345   13.0671 H   0  0  0  0  0  0  0  0  0  0  0  0
   -9.2656   27.9665   14.8781 H   0  0  0  0  0  0  0  0  0  0  0  0
   -8.7707   29.6961   14.6265 H   0  0  0  0  0  0  0  0  0  0  0  0
  1  2  2  3
  2  3  1  0
  3  4  1  0
  4  5  1  0
  5  6  1  0
  6  7  1  0
  7  8  1  0
  8  9  1  0
  6 10  1  0
 10 11  1  0
 11 12  1  0
 12 13  1  0
 13 14  1  0
 12 15  1  0
 15 16  1  0
 16 17  1  0
 17 18  1  0
 18 19  1  0
 19 20  1  0
 20 21  1  0
 21 22  2  0
 21 23  1  0
 20 24  1  0
 24 25  1  0
 25 26  1  0
 26 27  1  0
 27 28  1  0
 28 29  1  0
 29 30  1  0
 30 31  1  0
 30 32  1  0
 32 33  1  0
 33 34  1  0
 34 35  1  0
 35 36  1  0
 36 37  1  0
 37 38  1  0
 37 39  1  0
 37 40  1  0
 10 41  1  0
 41 42  1  0
 42 43  1  0
 43 44  1  0
 43  3  1  0
 42  6  1  0
 19 17  1  0
 25 20  1  0
 29 27  1  0
 34 32  1  0
 39 35  1  0
 31 25  1  0
 40 27  1  0
  1 45  1  0
  1 46  1  0
  2 47  1  0
  3 48  1  0
  5 49  1  0
  5 50  1  0
  7 51  1  0
  7 52  1  0
  9 53  1  0
  9 54  1  0
 10 55  1  0
 11 56  1  0
 11 57  1  0
 12 58  1  0
 13 59  1  0
 13 60  1  0
 14 61  1  0
 14 62  1  0
 14 63  1  0
 15 64  1  0
 15 65  1  0
 16 66  1  0
 16 67  1  0
 17 68  1  0
 18 69  1  0
 18 70  1  0
 19 71  1  0
 23 72  1  0
 24 73  1  0
 24 74  1  0
 26 75  1  0
 26 76  1  0
 28 77  1  0
 28 78  1  0
 29 79  1  0
 30 80  1  0
 31 81  1  0
 32 82  1  0
 33 83  1  0
 34 84  1  0
 35 85  1  0
 36 86  1  0
 36 87  1  0
 38 88  1  0
 38 89  1  0
 38 90  1  0
 39 91  1  0
 39 92  1  0
 40 93  1  0
 40 94  1  0
 41 95  1  0
 41 96  1  0
 42 97  1  0
 43 98  1  0
 44 99  1  0
M  END
