
     RDKit          2D

 41 42  0  0  0  0  0  0  0  0999 V2000
   -2.1655   16.0174    3.5760 C   0  0  0  0  0  0  0  0  0  0  0  0
   -1.8939   17.2134    2.7124 C   0  0  0  0  0  0  0  0  0  0  0  0
   -1.6223   18.4094    1.8488 C   0  0  0  0  0  0  0  0  0  0  0  0
   -0.2286   18.9525    1.7366 C   0  0  0  0  0  0  0  0  0  0  0  0
    0.0430   20.1486    0.8730 C   0  0  0  0  0  0  0  0  0  0  0  0
   -1.0792   20.8014    0.1216 C   0  0  0  0  0  0  0  0  0  0  0  0
   -2.4729   20.2582    0.2338 C   0  0  0  0  0  0  0  0  0  0  0  0
   -2.7144   21.4038   -0.7039 C   0  0  0  0  0  0  0  0  0  0  0  0
   -1.2368   21.5491   -0.4904 C   0  0  0  0  0  0  0  0  0  0  0  0
   -0.4849   22.6513   -1.1757 C   0  0  0  0  0  0  0  0  0  0  0  0
   -1.2105   23.6082   -2.0745 C   0  0  0  0  0  0  0  0  0  0  0  0
    0.1833   24.1514   -2.1867 Br  0  0  0  0  0  0  0  0  0  0  0  0
   -1.4521   24.7538   -3.0123 C   0  0  0  0  0  0  0  0  0  0  0  0
   -1.6937   25.8993   -3.9500 C   0  0  0  0  0  0  0  0  0  0  0  0
   -2.6881   23.4629   -2.2880 N   0  0  0  0  0  0  0  0  0  0  0  0
   -3.4400   22.3607   -1.6027 C   0  0  0  0  0  0  0  0  0  0  0  0
   -2.7444   19.0623    1.0974 C   0  0  0  0  0  0  0  0  0  0  0  0
   -2.4371   14.8213    4.4396 H   0  0  0  0  0  0  0  0  0  0  0  0
   -0.7133   15.9553    3.9466 H   0  0  0  0  0  0  0  0  0  0  0  0
   -3.6175   16.0795    3.2054 H   0  0  0  0  0  0  0  0  0  0  0  0
   -0.4417   17.1513    3.0831 H   0  0  0  0  0  0  0  0  0  0  0  0
   -3.3683   17.1293    2.4498 H   0  0  0  0  0  0  0  0  0  0  0  0
    0.8935   18.2997    2.4880 H   0  0  0  0  0  0  0  0  0  0  0  0
    1.4367   20.6917    0.7608 H   0  0  0  0  0  0  0  0  0  0  0  0
   -0.4642   21.9465   -0.6270 H   0  0  0  0  0  0  0  0  0  0  0  0
   -3.9505   20.1130    0.0204 H   0  0  0  0  0  0  0  0  0  0  0  0
   -4.1081   20.8607   -0.5917 H   0  0  0  0  0  0  0  0  0  0  0  0
    0.1465   21.2791    0.0229 H   0  0  0  0  0  0  0  0  0  0  0  0
   -1.1901   20.9242    0.0023 H   0  0  0  0  0  0  0  0  0  0  0  0
    0.6569   23.5268   -1.6001 H   0  0  0  0  0  0  0  0  0  0  0  0
    0.6373   21.9985   -0.4243 H   0  0  0  0  0  0  0  0  0  0  0  0
    0.0052   25.1053   -2.9582 H   0  0  0  0  0  0  0  0  0  0  0  0
   -2.9279   24.5445   -3.1802 H   0  0  0  0  0  0  0  0  0  0  0  0
   -1.9353   27.0449   -4.8877 H   0  0  0  0  0  0  0  0  0  0  0  0
   -0.2354   26.2471   -3.9008 H   0  0  0  0  0  0  0  0  0  0  0  0
   -3.1519   25.5515   -3.9991 H   0  0  0  0  0  0  0  0  0  0  0  0
   -3.5652   24.3250   -3.1469 H   0  0  0  0  0  0  0  0  0  0  0  0
   -4.5817   21.4853   -1.1784 H   0  0  0  0  0  0  0  0  0  0  0  0
   -4.5622   23.0136   -2.3541 H   0  0  0  0  0  0  0  0  0  0  0  0
   -4.1277   19.3323    0.5840 H   0  0  0  0  0  0  0  0  0  0  0  0
   -3.6459   18.0254    1.6993 H   0  0  0  0  0  0  0  0  0  0  0  0
  1  2  1  0
  2  3  1  0
  3  4  2  0
  4  5  1  0
  5  6  2  0
  6  7  1  0
  7  8  1  0
  8  9  1  0
  9 10  1  0
 10 11  1  0
 11 12  1  0
 11 13  1  0
 13 14  1  0
 11 15  1  0
 15 16  1  0
  7 17  1  0
 17  3  1  0
 16  8  1  0
  1 18  1  0
  1 19  1  0
  1 20  1  0
  2 21  1  0
  2 22  1  0
  4 23  1  0
  5 24  1  0
  6 25  1  0
  7 26  1  0
  8 27  1  0
  9 28  1  0
  9 29  1  0
 10 30  1  0
 10 31  1  0
 13 32  1  0
 13 33  1  0
 14 34  1  0
 14 35  1  0
 14 36  1  0
 15 37  1  0
 16 38  1  0
 16 39  1  0
 17 40  1  0
 17 41  1  0
M  END
