
     RDKit          2D

110118  0  0  0  0  0  0  0  0999 V2000
  -12.9631   23.8353   12.4979 C   0  0  0  0  0  0  0  0  0  0  0  0
  -12.5123   25.2141   12.1165 C   0  0  0  0  0  0  0  0  0  0  0  0
  -13.1592   26.4144   12.7416 C   0  0  0  0  0  0  0  0  0  0  0  0
  -11.4145   25.3927   11.1100 C   0  0  0  0  0  0  0  0  0  0  0  0
  -10.3168   25.5713   10.1036 C   0  0  0  0  0  0  0  0  0  0  0  0
   -9.2190   25.7498    9.0971 C   0  0  0  0  0  0  0  0  0  0  0  0
   -8.1212   25.9284    8.0906 C   0  0  0  0  0  0  0  0  0  0  0  0
   -7.0235   26.1069    7.0841 C   0  0  0  0  0  0  0  0  0  0  0  0
   -5.9257   26.2855    6.0776 C   0  0  0  0  0  0  0  0  0  0  0  0
   -4.8279   26.4641    5.0711 C   0  0  0  0  0  0  0  0  0  0  0  0
   -3.7301   26.6426    4.0647 C   0  0  0  0  0  0  0  0  0  0  0  0
   -2.6323   26.8212    3.0582 C   0  0  0  0  0  0  0  0  0  0  0  0
   -1.5346   26.9997    2.0517 C   0  0  0  0  0  0  0  0  0  0  0  0
   -1.6416   26.2714    4.0412 N   0  0  0  0  0  0  0  0  0  0  0  0
   -0.2994   25.7975    3.5679 C   0  0  0  0  0  0  0  0  0  0  0  0
    1.0428   25.3237    3.0947 C   0  0  0  0  0  0  0  0  0  0  0  0
    0.8160   25.6334    1.6446 C   0  0  0  0  0  0  0  0  0  0  0  0
    2.1188   25.0377    2.0896 C   0  0  0  0  0  0  0  0  0  0  0  0
    3.2912   24.4522    2.8195 C   0  0  0  0  0  0  0  0  0  0  0  0
    4.5939   23.8565    3.2645 C   0  0  0  0  0  0  0  0  0  0  0  0
    5.9859   23.3015    3.1977 C   0  0  0  0  0  0  0  0  0  0  0  0
    5.3031   23.7666    1.9457 C   0  0  0  0  0  0  0  0  0  0  0  0
    6.3792   23.4806    0.9406 C   0  0  0  0  0  0  0  0  0  0  0  0
    7.0883   23.3906   -0.3782 C   0  0  0  0  0  0  0  0  0  0  0  0
    8.3911   22.7949    0.0668 As  0  0  0  0  0  3  0  0  0  0  0  0
    5.6964   23.9457   -0.3115 C   0  0  0  0  0  0  0  0  0  0  0  0
    5.4697   24.2554   -1.7615 C   0  0  0  0  0  0  0  0  0  0  0  0
    6.5458   23.9693   -2.7666 C   0  0  0  0  0  0  0  0  0  0  0  0
    4.1670   24.8511   -2.2064 C   0  0  0  0  0  0  0  0  0  0  0  0
    2.8643   25.4468   -2.6514 N   0  0  0  0  0  0  0  0  0  0  0  0
    2.9397   24.3763    4.2757 C   0  0  0  0  0  0  0  0  0  0  0  0
    4.1840   23.7825    4.8664 C   0  0  0  0  0  0  0  0  0  0  0  0
    3.0216   24.1216    5.7517 C   0  0  0  0  0  0  0  0  0  0  0  0
    1.6320   24.6602    5.9218 C   0  0  0  0  0  0  0  0  0  0  0  0
    1.5501   24.9149    4.4458 C   0  0  0  0  0  0  0  0  0  0  0  0
   -8.6735   26.8965    9.8955 C   0  0  0  0  0  0  0  0  0  0  0  0
   -8.1280   28.0433   10.6940 C   0  0  0  0  0  0  0  0  0  0  0  0
   -7.8247   29.1301   11.6824 Mg  0  0  0  0  0  2  0  0  0  0  0  0
   -6.6545   29.6271   11.0161 C   0  0  0  0  0  0  0  0  0  0  0  0
   -7.7153   28.5741   10.8899 C   0  0  0  0  0  0  0  0  0  0  0  0
   -8.7760   27.5210   10.7636 C   0  0  0  0  0  0  0  0  0  0  0  0
   -9.8366   26.4680   10.6373 C   0  0  0  0  0  0  0  0  0  0  0  0
   -7.0835   28.0902    9.6184 C   0  0  0  0  0  0  0  0  0  0  0  0
   -6.0059   28.1977    8.5804 C   0  0  0  0  0  0  0  0  0  0  0  0
   -6.0228   29.1433    9.7447 C   0  0  0  0  0  0  0  0  0  0  0  0
  -14.0609   23.6567   13.5044 H   0  0  0  0  0  0  0  0  0  0  0  0
  -12.3162   22.6349   11.8728 H   0  0  0  0  0  0  0  0  0  0  0  0
  -13.8062   27.6147   13.3667 H   0  0  0  0  0  0  0  0  0  0  0  0
  -12.9859   25.8008   14.0993 H   0  0  0  0  0  0  0  0  0  0  0  0
  -13.3325   27.0281   11.3839 H   0  0  0  0  0  0  0  0  0  0  0  0
  -12.4293   25.4058   10.0055 H   0  0  0  0  0  0  0  0  0  0  0  0
  -10.5411   25.3580   12.3291 H   0  0  0  0  0  0  0  0  0  0  0  0
  -11.3355   25.6430    9.0050 H   0  0  0  0  0  0  0  0  0  0  0  0
  -10.0203   25.5017   10.8403 H   0  0  0  0  0  0  0  0  0  0  0  0
   -9.7644   24.6032    8.2987 H   0  0  0  0  0  0  0  0  0  0  0  0
   -7.1076   25.9295    9.1963 H   0  0  0  0  0  0  0  0  0  0  0  0
   -8.8391   25.9705    6.7741 H   0  0  0  0  0  0  0  0  0  0  0  0
   -6.0098   26.1071    8.1897 H   0  0  0  0  0  0  0  0  0  0  0  0
   -7.8957   26.1286    5.8640 H   0  0  0  0  0  0  0  0  0  0  0  0
   -4.9276   26.4174    7.1896 H   0  0  0  0  0  0  0  0  0  0  0  0
   -6.9236   26.1536    4.9656 H   0  0  0  0  0  0  0  0  0  0  0  0
   -3.8158   26.4815    6.1781 H   0  0  0  0  0  0  0  0  0  0  0  0
   -5.8399   26.4467    3.9642 H   0  0  0  0  0  0  0  0  0  0  0  0
   -2.8574   26.6166    5.2844 H   0  0  0  0  0  0  0  0  0  0  0  0
   -4.7442   26.6469    2.9594 H   0  0  0  0  0  0  0  0  0  0  0  0
   -3.6230   27.3709    2.0751 H   0  0  0  0  0  0  0  0  0  0  0  0
   -0.5685   27.1769    0.9179 H   0  0  0  0  0  0  0  0  0  0  0  0
   -2.5482   26.9990    0.9460 H   0  0  0  0  0  0  0  0  0  0  0  0
   -0.1947   27.0644    2.7231 H   0  0  0  0  0  0  0  0  0  0  0  0
   -1.8263   26.1241    5.5225 H   0  0  0  0  0  0  0  0  0  0  0  0
   -0.6689   26.1577    2.1595 H   0  0  0  0  0  0  0  0  0  0  0  0
   -0.0963   25.4979    5.0236 H   0  0  0  0  0  0  0  0  0  0  0  0
   -0.5308   26.2243    1.3502 H   0  0  0  0  0  0  0  0  0  0  0  0
    1.0727   25.7503    0.1714 H   0  0  0  0  0  0  0  0  0  0  0  0
    2.7427   24.9890    0.7264 H   0  0  0  0  0  0  0  0  0  0  0  0
    3.7587   24.4763    1.3944 H   0  0  0  0  0  0  0  0  0  0  0  0
    4.6759   23.6017    4.7403 H   0  0  0  0  0  0  0  0  0  0  0  0
    6.2125   22.9918    4.6478 H   0  0  0  0  0  0  0  0  0  0  0  0
    7.3455   22.8093    2.7989 H   0  0  0  0  0  0  0  0  0  0  0  0
    4.2466   24.3310    1.0428 H   0  0  0  0  0  0  0  0  0  0  0  0
    7.5382   22.8971    1.6930 H   0  0  0  0  0  0  0  0  0  0  0  0
    7.5098   23.4354   -1.8170 H   0  0  0  0  0  0  0  0  0  0  0  0
    9.4671   22.5089   -0.9383 H   0  0  0  0  0  0  0  0  0  0  0  0
    8.6178   22.4853    1.5168 H   0  0  0  0  0  0  0  0  0  0  0  0
    4.3367   24.4378    0.0874 H   0  0  0  0  0  0  0  0  0  0  0  0
    6.3191   24.2789   -4.2167 H   0  0  0  0  0  0  0  0  0  0  0  0
    7.8485   23.3736   -2.3216 H   0  0  0  0  0  0  0  0  0  0  0  0
    4.6598   24.8706   -3.6230 H   0  0  0  0  0  0  0  0  0  0  0  0
    3.5191   24.9043   -0.8546 H   0  0  0  0  0  0  0  0  0  0  0  0
    1.7289   24.5526   -3.0529 H   0  0  0  0  0  0  0  0  0  0  0  0
    2.6970   26.9368   -2.6950 H   0  0  0  0  0  0  0  0  0  0  0  0
    5.2602   23.4965    3.8613 H   0  0  0  0  0  0  0  0  0  0  0  0
    5.1400   23.2411    5.8877 H   0  0  0  0  0  0  0  0  0  0  0  0
    3.4603   23.7361    7.1333 H   0  0  0  0  0  0  0  0  0  0  0  0
    0.2424   25.1988    6.0919 H   0  0  0  0  0  0  0  0  0  0  0  0
    1.7139   24.4054    7.3977 H   0  0  0  0  0  0  0  0  0  0  0  0
    0.2369   25.3624    5.0162 H   0  0  0  0  0  0  0  0  0  0  0  0
   -7.2896   26.5720    9.4162 H   0  0  0  0  0  0  0  0  0  0  0  0
  -10.1134   27.0789   10.2740 H   0  0  0  0  0  0  0  0  0  0  0  0
   -9.2258   27.8956   11.7053 H   0  0  0  0  0  0  0  0  0  0  0  0
   -6.3512   30.7139   12.0045 H   0  0  0  0  0  0  0  0  0  0  0  0
   -8.5849   28.7888   12.0931 H   0  0  0  0  0  0  0  0  0  0  0  0
   -8.1230   27.0134    9.5122 H   0  0  0  0  0  0  0  0  0  0  0  0
   -9.5534   27.8965   11.9902 H   0  0  0  0  0  0  0  0  0  0  0  0
  -11.0800   25.7767   11.1132 H   0  0  0  0  0  0  0  0  0  0  0  0
  -10.3558   27.1005   11.8944 H   0  0  0  0  0  0  0  0  0  0  0  0
   -9.4594   25.7203    9.3929 H   0  0  0  0  0  0  0  0  0  0  0  0
   -6.2673   27.1257    7.5643 H   0  0  0  0  0  0  0  0  0  0  0  0
   -4.7873   28.6934    7.8598 H   0  0  0  0  0  0  0  0  0  0  0  0
   -4.8347   30.0352    9.5376 H   0  0  0  0  0  0  0  0  0  0  0  0
  1  2  2  3
  2  3  1  0
  2  4  1  0
  4  5  1  0
  5  6  1  0
  6  7  1  0
  7  8  1  0
  8  9  1  0
  9 10  1  0
 10 11  1  0
 11 12  1  0
 12 13  1  0
 12 14  1  0
 14 15  1  0
 15 16  1  0
 16 17  1  0
 17 18  1  0
 18 19  1  0
 19 20  1  0
 20 21  1  0
 21 22  1  0
 22 23  1  0
 23 24  1  0
 24 25  1  0
 24 26  1  0
 26 27  1  0
 27 28  2  3
 27 29  1  0
 29 30  1  0
 19 31  1  0
 31 32  1  0
 32 33  1  0
 33 34  1  0
 34 35  1  0
  6 36  1  0
 36 37  1  0
 37 38  1  0
 38 39  1  0
 39 40  1  0
 40 41  1  0
 41 42  1  0
 40 43  1  0
 43 44  1  0
 44 45  1  0
 18 16  1  0
 22 20  1  0
 26 23  1  0
 33 31  1  0
 43 37  1  0
 35 16  1  0
 45 39  1  0
 35 31  1  0
 45 43  1  0
  1 46  1  0
  1 47  1  0
  3 48  1  0
  3 49  1  0
  3 50  1  0
  4 51  1  0
  4 52  1  0
  5 53  1  0
  5 54  1  0
  6 55  1  0
  7 56  1  0
  7 57  1  0
  8 58  1  0
  8 59  1  0
  9 60  1  0
  9 61  1  0
 10 62  1  0
 10 63  1  0
 11 64  1  0
 11 65  1  0
 12 66  1  0
 13 67  1  0
 13 68  1  0
 13 69  1  0
 14 70  1  0
 15 71  1  0
 15 72  1  0
 17 73  1  0
 17 74  1  0
 18 75  1  0
 19 76  1  0
 20 77  1  0
 21 78  1  0
 21 79  1  0
 22 80  1  0
 23 81  1  0
 24 82  1  0
 25 83  1  0
 25 84  1  0
 26 85  1  0
 28 86  1  0
 28 87  1  0
 29 88  1  0
 29 89  1  0
 30 90  1  0
 30 91  1  0
 32 92  1  0
 32 93  1  0
 33 94  1  0
 34 95  1  0
 34 96  1  0
 35 97  1  0
 36 98  1  0
 36 99  1  0
 37100  1  0
 39101  1  0
 40102  1  0
 41103  1  0
 41104  1  0
 42105  1  0
 42106  1  0
 42107  1  0
 44108  1  0
 44109  1  0
 45110  1  0
M  END
