
     RDKit          2D

 34 34  0  0  0  0  0  0  0  0999 V2000
   16.8844   -1.6457   -4.2507 C   0  0  0  0  0  0  0  0  0  0  0  0
   18.2271   -1.0368   -3.9740 C   0  0  0  0  0  0  0  0  0  0  0  0
   19.5698   -0.4279   -3.6974 C   0  0  0  0  0  0  0  0  0  0  0  0
   20.9124    0.1810   -3.4208 C   0  0  0  0  0  0  0  0  0  0  0  0
   22.2551    0.7899   -3.1442 C   0  0  0  0  0  0  0  0  0  0  0  0
       nan       nan       nan C   0  0  0  0  0  0  0  0  0  0  0  0
   21.5543   -1.1664   -3.5706 C   0  0  0  0  0  0  0  0  0  0  0  0
   22.1963   -2.5138   -3.7205 N   0  0  0  0  0  0  0  0  0  0  0  0
   21.7096   -3.8866   -4.0794 C   0  0  0  0  0  0  0  0  0  0  0  0
   20.3151   -3.3538   -4.2263 N   0  0  0  0  0  0  0  0  0  0  0  0
   23.1041   -4.4194   -3.9324 N   0  0  0  0  0  0  0  0  0  0  0  0
   23.5908   -3.0466   -3.5736 C   0  0  0  0  0  0  0  0  0  0  0  0
   24.9852   -3.5795   -3.4266 O   0  0  0  0  0  0  0  0  0  0  0  0
   15.5418   -2.2546   -4.5273 H   0  0  0  0  0  0  0  0  0  0  0  0
   17.5339   -2.9809   -4.4638 H   0  0  0  0  0  0  0  0  0  0  0  0
   16.2350   -0.3105   -4.0375 H   0  0  0  0  0  0  0  0  0  0  0  0
   18.8615   -2.3927   -4.0688 H   0  0  0  0  0  0  0  0  0  0  0  0
   17.5927    0.3191   -3.8793 H   0  0  0  0  0  0  0  0  0  0  0  0
   19.1402    0.2369   -3.6029 H   0  0  0  0  0  0  0  0  0  0  0  0
   19.3142    0.3158   -3.5671 H   0  0  0  0  0  0  0  0  0  0  0  0
   20.2705    1.5284   -3.2710 H   0  0  0  0  0  0  0  0  0  0  0  0
   21.6195    2.1447   -3.0417 H   0  0  0  0  0  0  0  0  0  0  0  0
   23.0495   -0.4808   -3.2121 H   0  0  0  0  0  0  0  0  0  0  0  0
       nan       nan       nan H   0  0  0  0  0  0  0  0  0  0  0  0
       nan       nan       nan H   0  0  0  0  0  0  0  0  0  0  0  0
       nan       nan       nan H   0  0  0  0  0  0  0  0  0  0  0  0
   22.9087   -0.6780   -3.9914 H   0  0  0  0  0  0  0  0  0  0  0  0
   20.2000   -1.6550   -3.1500 H   0  0  0  0  0  0  0  0  0  0  0  0
   21.2230   -5.2594   -4.4382 H   0  0  0  0  0  0  0  0  0  0  0  0
   19.1962   -4.2766   -4.6090 H   0  0  0  0  0  0  0  0  0  0  0  0
   19.8648   -1.9366   -4.0295 H   0  0  0  0  0  0  0  0  0  0  0  0
   23.7460   -5.7668   -4.0823 H   0  0  0  0  0  0  0  0  0  0  0  0
   24.0774   -1.6739   -3.2147 H   0  0  0  0  0  0  0  0  0  0  0  0
   26.1038   -2.6571   -3.0421 H   0  0  0  0  0  0  0  0  0  0  0  0
  1  2  1  0
  2  3  1  0
  3  4  1  0
  4  5  1  0
  5  6  1  0
  4  7  1  0
  7  8  1  0
  8  9  1  0
  9 10  1  0
  9 11  1  0
 11 12  1  0
 12 13  1  0
 12  8  1  0
  1 14  1  0
  1 15  1  0
  1 16  1  0
  2 17  1  0
  2 18  1  0
  3 19  1  0
  3 20  1  0
  4 21  1  0
  5 22  1  0
  5 23  1  0
  6 24  1  0
  6 25  1  0
  6 26  1  0
  7 27  1  0
  7 28  1  0
  9 29  1  0
 10 30  1  0
 10 31  1  0
 11 32  1  0
 12 33  1  0
 13 34  1  0
M  END
