
     RDKit          2D

 29 30  0  0  0  0  0  0  0  0999 V2000
    6.4741   28.3966   17.2223 C   0  0  0  0  0  0  0  0  0  0  0  0
    6.6557   29.1475   15.9365 C   0  0  0  0  0  0  0  0  0  0  0  0
    6.8373   29.8984   14.6508 C   0  0  0  0  0  0  0  0  0  0  0  0
    7.0189   30.6493   13.3651 C   0  0  0  0  0  0  0  0  0  0  0  0
    7.2006   31.4002   12.0793 C   0  0  0  0  0  0  0  0  0  0  0  0
    6.3340   32.5942   12.3503 O   0  0  0  0  0  0  0  0  0  0  0  0
    7.0593   32.4752   11.0427 C   0  0  0  0  0  0  0  0  0  0  0  0
    7.9399   31.9154    9.9652 C   0  0  0  0  0  0  0  0  0  0  0  0
    8.8206   31.3556    8.8876 C   0  0  0  0  0  0  0  0  0  0  0  0
    9.5459   31.2366    7.5801 C   0  0  0  0  0  0  0  0  0  0  0  0
    8.6794   32.4305    7.8511 C   0  0  0  0  0  0  0  0  0  0  0  0
    6.2924   27.6457   18.5080 H   0  0  0  0  0  0  0  0  0  0  0  0
    7.4034   27.3275   16.7292 H   0  0  0  0  0  0  0  0  0  0  0  0
    5.5447   29.4657   17.7154 H   0  0  0  0  0  0  0  0  0  0  0  0
    5.9648   30.3374   16.5339 H   0  0  0  0  0  0  0  0  0  0  0  0
    7.3466   27.9576   15.3392 H   0  0  0  0  0  0  0  0  0  0  0  0
    7.7487   28.8180   14.1486 H   0  0  0  0  0  0  0  0  0  0  0  0
    5.9260   30.9788   15.1530 H   0  0  0  0  0  0  0  0  0  0  0  0
    6.1068   31.7292   13.8668 H   0  0  0  0  0  0  0  0  0  0  0  0
    7.9311   29.5694   12.8632 H   0  0  0  0  0  0  0  0  0  0  0  0
    8.0288   30.4649   11.5676 H   0  0  0  0  0  0  0  0  0  0  0  0
    6.6123   33.7446   10.3804 H   0  0  0  0  0  0  0  0  0  0  0  0
    7.5899   33.0481    9.3196 H   0  0  0  0  0  0  0  0  0  0  0  0
    8.2901   30.7826   10.6108 H   0  0  0  0  0  0  0  0  0  0  0  0
    9.2677   30.0861    9.5500 H   0  0  0  0  0  0  0  0  0  0  0  0
   10.2450   29.9258    7.7883 H   0  0  0  0  0  0  0  0  0  0  0  0
   10.0285   31.5728    6.2002 H   0  0  0  0  0  0  0  0  0  0  0  0
    8.8610   33.1814    6.5654 H   0  0  0  0  0  0  0  0  0  0  0  0
    7.8511   33.3658    8.3627 H   0  0  0  0  0  0  0  0  0  0  0  0
  1  2  1  0
  2  3  1  0
  3  4  1  0
  4  5  1  0
  5  6  1  0
  6  7  1  0
  7  8  1  0
  8  9  1  0
  9 10  1  0
 10 11  1  0
  7  5  1  0
 11  9  1  0
  1 12  1  0
  1 13  1  0
  1 14  1  0
  2 15  1  0
  2 16  1  0
  3 17  1  0
  3 18  1  0
  4 19  1  0
  4 20  1  0
  5 21  1  0
  7 22  1  0
  8 23  1  0
  8 24  1  0
  9 25  1  0
 10 26  1  0
 10 27  1  0
 11 28  1  0
 11 29  1  0
M  END
