
     RDKit          2D

 32 34  0  0  0  0  0  0  0  0999 V2000
    0.9242   20.7478    6.7342 C   0  0  0  0  0  0  0  0  0  0  0  0
   -0.1567   21.5360    6.0556 C   0  0  0  0  0  0  0  0  0  0  0  0
   -1.2376   22.3241    5.3772 C   0  0  0  0  0  0  0  0  0  0  0  0
   -2.2065   21.9168    6.4474 C   0  0  0  0  0  0  0  0  0  0  0  0
   -3.2874   22.7050    5.7689 C   0  0  0  0  0  0  0  0  0  0  0  0
   -4.3683   23.4932    5.0904 C   0  0  0  0  0  0  0  0  0  0  0  0
   -5.7155   24.0942    4.8186 C   0  0  0  0  0  0  0  0  0  0  0  0
   -5.5104   23.2279    6.0259 C   0  0  0  0  0  0  0  0  0  0  0  0
   -2.3183   23.1132    4.6992 C   0  0  0  0  0  0  0  0  0  0  0  0
   -1.7773   23.7663    3.4620 C   0  0  0  0  0  0  0  0  0  0  0  0
   -3.2145   23.9603    3.8453 C   0  0  0  0  0  0  0  0  0  0  0  0
   -1.1255   21.1286    7.1259 C   0  0  0  0  0  0  0  0  0  0  0  0
    2.0051   19.9596    7.4128 H   0  0  0  0  0  0  0  0  0  0  0  0
    1.8697   21.0851    5.6196 H   0  0  0  0  0  0  0  0  0  0  0  0
    0.1174   20.3170    7.9231 H   0  0  0  0  0  0  0  0  0  0  0  0
    0.8121   21.9433    4.9854 H   0  0  0  0  0  0  0  0  0  0  0  0
   -0.2688   22.7315    4.3069 H   0  0  0  0  0  0  0  0  0  0  0  0
   -1.6704   22.7829    4.8897 H   0  0  0  0  0  0  0  0  0  0  0  0
   -3.1753   21.5095    7.5177 H   0  0  0  0  0  0  0  0  0  0  0  0
   -4.1175   22.2038    6.9133 H   0  0  0  0  0  0  0  0  0  0  0  0
   -3.9226   24.1868    3.8372 H   0  0  0  0  0  0  0  0  0  0  0  0
   -5.4167   24.8419    3.5530 H   0  0  0  0  0  0  0  0  0  0  0  0
   -7.1665   24.4355    4.9864 H   0  0  0  0  0  0  0  0  0  0  0  0
   -6.8901   23.2685    6.6129 H   0  0  0  0  0  0  0  0  0  0  0  0
   -4.9874   22.3403    7.1161 H   0  0  0  0  0  0  0  0  0  0  0  0
   -0.9366   22.5592    4.8839 H   0  0  0  0  0  0  0  0  0  0  0  0
   -0.3567   23.2879    3.5148 H   0  0  0  0  0  0  0  0  0  0  0  0
   -1.7297   24.5857    2.2065 H   0  0  0  0  0  0  0  0  0  0  0  0
   -3.6660   24.8470    2.7228 H   0  0  0  0  0  0  0  0  0  0  0  0
   -4.6224   24.0627    4.3525 H   0  0  0  0  0  0  0  0  0  0  0  0
   -2.0944   20.7213    8.1962 H   0  0  0  0  0  0  0  0  0  0  0  0
   -0.1708   20.2967    7.9298 H   0  0  0  0  0  0  0  0  0  0  0  0
  1  2  1  0
  2  3  1  0
  3  4  1  0
  4  5  1  0
  5  6  1  0
  6  7  1  0
  7  8  1  0
  5  9  1  0
  9 10  1  0
 10 11  1  0
  4 12  1  0
 12  2  1  0
  8  6  1  0
 11  9  1  0
  1 13  1  0
  1 14  1  0
  1 15  1  0
  2 16  1  0
  3 17  1  0
  3 18  1  0
  4 19  1  0
  5 20  1  0
  6 21  1  0
  7 22  1  0
  7 23  1  0
  8 24  1  0
  8 25  1  0
  9 26  1  0
 10 27  1  0
 10 28  1  0
 11 29  1  0
 11 30  1  0
 12 31  1  0
 12 32  1  0
M  END
