
     RDKit          2D

 41 44  0  0  0  0  0  0  0  0999 V2000
   18.9221  -24.2499  -25.6008 O   0  0  0  0  0  0  0  0  0  0  0  0
   17.6709  -23.5730  -25.1249 C   0  0  0  0  0  0  0  0  0  0  0  0
   17.6760  -22.8091  -23.8341 C   0  0  0  0  0  0  0  0  0  0  0  0
   17.6811  -22.0452  -22.5432 C   0  0  0  0  0  0  0  0  0  0  0  0
   17.6862  -21.2812  -21.2523 C   0  0  0  0  0  0  0  0  0  0  0  0
   17.6912  -20.5173  -19.9614 C   0  0  0  0  0  0  0  0  0  0  0  0
   18.9727  -19.9415  -19.4357 P   0  0  0  0  0  0  0  0  0  0  0  0
   17.6963  -19.7534  -18.6705 C   0  0  0  0  0  0  0  0  0  0  0  0
   16.4199  -19.5652  -17.9054 C   0  0  0  0  0  0  0  0  0  0  0  0
   16.9299  -18.7708  -16.7396 C   0  0  0  0  0  0  0  0  0  0  0  0
   17.4397  -17.9764  -15.5738 C   0  0  0  0  0  0  0  0  0  0  0  0
   18.8258  -18.0285  -16.1447 O   0  0  0  0  0  0  0  0  0  0  0  0
   17.9495  -17.1820  -14.4081 C   0  0  0  0  0  0  0  0  0  0  0  0
   18.4595  -16.3876  -13.2423 O   0  0  0  0  0  0  0  0  0  0  0  0
   15.5439  -18.7201  -16.1679 C   0  0  0  0  0  0  0  0  0  0  0  0
   15.8052  -17.9278  -14.9213 O   0  0  0  0  0  0  0  0  0  0  0  0
   14.0673  -18.9446  -16.0292 C   0  0  0  0  0  0  0  0  0  0  0  0
   14.8014  -19.4948  -17.2161 C   0  0  0  0  0  0  0  0  0  0  0  0
   13.6672  -20.1585  -17.9392 O   0  0  0  0  0  0  0  0  0  0  0  0
   16.4148  -20.3291  -19.1962 C   0  0  0  0  0  0  0  0  0  0  0  0
   16.4146  -23.6601  -25.9399 H   0  0  0  0  0  0  0  0  0  0  0  0
   19.1699  -22.6961  -23.9068 H   0  0  0  0  0  0  0  0  0  0  0  0
   16.1820  -22.9221  -23.7613 H   0  0  0  0  0  0  0  0  0  0  0  0
   18.8482  -22.8580  -22.0668 H   0  0  0  0  0  0  0  0  0  0  0  0
   16.5139  -21.2323  -23.0196 H   0  0  0  0  0  0  0  0  0  0  0  0
   16.3930  -21.9331  -20.8614 H   0  0  0  0  0  0  0  0  0  0  0  0
   18.9793  -20.6293  -21.6432 H   0  0  0  0  0  0  0  0  0  0  0  0
   20.4494  -19.7178  -19.5739 H   0  0  0  0  0  0  0  0  0  0  0  0
   15.6369  -19.7122  -17.8800 H   0  0  0  0  0  0  0  0  0  0  0  0
   18.3157  -18.8214  -17.3113 H   0  0  0  0  0  0  0  0  0  0  0  0
   16.7183  -17.8330  -15.0803 H   0  0  0  0  0  0  0  0  0  0  0  0
   20.0674  -17.4254  -15.5571 H   0  0  0  0  0  0  0  0  0  0  0  0
   19.3882  -17.1397  -14.8309 H   0  0  0  0  0  0  0  0  0  0  0  0
   16.5628  -17.1271  -13.8391 H   0  0  0  0  0  0  0  0  0  0  0  0
   19.9147  -16.0347  -13.1544 H   0  0  0  0  0  0  0  0  0  0  0  0
   14.6771  -17.6081  -13.9857 H   0  0  0  0  0  0  0  0  0  0  0  0
   13.8158  -18.2303  -14.7345 H   0  0  0  0  0  0  0  0  0  0  0  0
   12.6781  -19.4173  -16.3403 H   0  0  0  0  0  0  0  0  0  0  0  0
   15.3683  -19.8143  -17.9545 H   0  0  0  0  0  0  0  0  0  0  0  0
   13.9187  -20.8728  -19.2340 H   0  0  0  0  0  0  0  0  0  0  0  0
   15.1334  -20.9048  -19.7220 H   0  0  0  0  0  0  0  0  0  0  0  0
  1  2  2  0
  2  3  1  0
  3  4  1  0
  4  5  1  0
  5  6  1  0
  6  7  1  0
  7  8  1  0
  8  9  1  0
  9 10  1  0
 10 11  1  0
 11 12  1  0
 11 13  1  0
 13 14  1  0
 10 15  1  0
 15 16  1  0
 15 17  1  0
 17 18  1  0
 18 19  1  0
  9 20  1  0
  8  6  1  0
 18 15  1  0
 20  6  1  0
 20  8  1  0
  2 21  1  0
  3 22  1  0
  3 23  1  0
  4 24  1  0
  4 25  1  0
  5 26  1  0
  5 27  1  0
  7 28  1  0
  9 29  1  0
 10 30  1  0
 11 31  1  0
 12 32  1  0
 13 33  1  0
 13 34  1  0
 14 35  1  0
 16 36  1  0
 17 37  1  0
 17 38  1  0
 18 39  1  0
 19 40  1  0
 20 41  1  0
M  END
