
     RDKit          2D

 79 89  0  0  0  0  0  0  0  0999 V2000
   17.5436  -17.6292  -14.5053 C   0  0  0  0  0  0  0  0  0  0  0  0
   18.0528  -18.7828  -13.6931 C   0  0  0  0  0  0  0  0  0  0  0  0
   19.1014  -19.6938  -14.2593 C   0  0  0  0  0  0  0  0  0  0  0  0
   20.1500  -20.6047  -14.8256 C   0  0  0  0  0  0  0  0  0  0  0  0
   20.0834  -19.8697  -16.1314 C   0  0  0  0  0  0  0  0  0  0  0  0
   20.0168  -19.1346  -17.4373 O   0  0  0  0  0  0  0  0  0  0  0  0
   21.1320  -20.7806  -16.6976 O   0  0  0  0  0  0  0  0  0  0  0  0
   21.1986  -21.5156  -15.3918 C   0  0  0  0  0  0  0  0  0  0  0  0
   21.2653  -22.2507  -14.0860 C   0  0  0  0  0  0  0  0  0  0  0  0
   21.3318  -22.9857  -12.7801 C   0  0  0  0  0  0  0  0  0  0  0  0
   22.3803  -23.8967  -13.3464 C   0  0  0  0  0  0  0  0  0  0  0  0
   23.0746  -24.0212  -14.6702 C   0  0  0  0  0  0  0  0  0  0  0  0
   22.4469  -24.6318  -12.0405 C   0  0  0  0  0  0  0  0  0  0  0  0
   22.8343  -25.6124  -10.9736 C   0  0  0  0  0  0  0  0  0  0  0  0
   22.0252  -25.3074   -9.7479 C   0  0  0  0  0  0  0  0  0  0  0  0
   21.1378  -24.1383  -10.0573 C   0  0  0  0  0  0  0  0  0  0  0  0
   21.3985  -23.7208  -11.4742 C   0  0  0  0  0  0  0  0  0  0  0  0
   17.5134  -19.0256  -12.3146 O   0  0  0  0  0  0  0  0  0  0  0  0
   18.0226  -20.1793  -11.5025 C   0  0  0  0  0  0  0  0  0  0  0  0
   18.9399  -20.5647  -12.6249 N   0  0  0  0  0  0  0  0  0  0  0  0
   19.8426  -21.7539  -12.4811 C   0  0  0  0  0  0  0  0  0  0  0  0
   17.1053  -19.7939  -10.3800 C   0  0  0  0  0  0  0  0  0  0  0  0
   16.2002  -18.6066  -10.5250 C   0  0  0  0  0  0  0  0  0  0  0  0
   15.2034  -17.4952  -10.3799 C   0  0  0  0  0  0  0  0  0  0  0  0
   14.1989  -16.8795   -9.4515 C   0  0  0  0  0  0  0  0  0  0  0  0
   14.1867  -17.6814   -8.1839 C   0  0  0  0  0  0  0  0  0  0  0  0
   15.1836  -18.7928   -8.3290 C   0  0  0  0  0  0  0  0  0  0  0  0
   15.8119  -18.6777   -9.6862 C   0  0  0  0  0  0  0  0  0  0  0  0
   15.4498  -18.0687   -9.9521 C   0  0  0  0  0  0  0  0  0  0  0  0
   16.1880  -19.4086   -9.2574 C   0  0  0  0  0  0  0  0  0  0  0  0
   17.0931  -20.5959   -9.1124 C   0  0  0  0  0  0  0  0  0  0  0  0
   17.0809  -21.3979   -7.8448 C   0  0  0  0  0  0  0  0  0  0  0  0
   17.1190  -21.4139   -7.8915 C   0  0  0  0  0  0  0  0  0  0  0  0
   17.9600  -21.7672   -8.9206 C   0  0  0  0  0  0  0  0  0  0  0  0
   17.9982  -21.7833   -8.9673 C   0  0  0  0  0  0  0  0  0  0  0  0
   17.9859  -22.5852   -7.6998 N   0  0  0  0  0  0  0  0  0  0  0  0
   18.5014  -23.7337   -6.8842 C   0  0  0  0  0  0  0  0  0  0  0  0
   18.0830  -17.3864  -15.8837 H   0  0  0  0  0  0  0  0  0  0  0  0
   16.4949  -16.7182  -13.9390 H   0  0  0  0  0  0  0  0  0  0  0  0
   18.5067  -19.2640  -15.5676 H   0  0  0  0  0  0  0  0  0  0  0  0
   19.8116  -20.2257  -13.0500 H   0  0  0  0  0  0  0  0  0  0  0  0
   20.3440  -21.4453  -13.5984 H   0  0  0  0  0  0  0  0  0  0  0  0
   19.0345  -18.8759  -15.7286 H   0  0  0  0  0  0  0  0  0  0  0  0
   20.9092  -19.5402  -18.5727 H   0  0  0  0  0  0  0  0  0  0  0  0
   22.2313  -22.3302  -16.1130 H   0  0  0  0  0  0  0  0  0  0  0  0
   22.2951  -23.0677  -14.8084 H   0  0  0  0  0  0  0  0  0  0  0  0
   22.3113  -23.2468  -14.4901 H   0  0  0  0  0  0  0  0  0  0  0  0
   20.3307  -22.2796  -11.9147 H   0  0  0  0  0  0  0  0  0  0  0  0
   24.1046  -25.0914  -14.8792 H   0  0  0  0  0  0  0  0  0  0  0  0
   22.8628  -23.1666  -15.8846 H   0  0  0  0  0  0  0  0  0  0  0  0
   23.4721  -25.4166  -12.8041 H   0  0  0  0  0  0  0  0  0  0  0  0
   23.7650  -26.1457  -12.0220 H   0  0  0  0  0  0  0  0  0  0  0  0
   23.4162  -26.7045  -10.1258 H   0  0  0  0  0  0  0  0  0  0  0  0
   22.7763  -26.4633   -9.1564 H   0  0  0  0  0  0  0  0  0  0  0  0
   21.3732  -25.2441   -8.3985 H   0  0  0  0  0  0  0  0  0  0  0  0
   20.6713  -24.3194   -8.6433 H   0  0  0  0  0  0  0  0  0  0  0  0
   20.1529  -23.0071  -10.0711 H   0  0  0  0  0  0  0  0  0  0  0  0
   20.3524  -22.7060  -11.1192 H   0  0  0  0  0  0  0  0  0  0  0  0
   18.5319  -21.3330  -10.6903 H   0  0  0  0  0  0  0  0  0  0  0  0
   19.2083  -20.0047  -13.9904 H   0  0  0  0  0  0  0  0  0  0  0  0
   20.5884  -22.9664  -12.0079 H   0  0  0  0  0  0  0  0  0  0  0  0
   20.4867  -21.6591  -13.8325 H   0  0  0  0  0  0  0  0  0  0  0  0
   19.3047  -21.9956  -11.1019 H   0  0  0  0  0  0  0  0  0  0  0  0
   16.5195  -18.1051  -11.9021 H   0  0  0  0  0  0  0  0  0  0  0  0
   13.9921  -15.9063  -10.5740 H   0  0  0  0  0  0  0  0  0  0  0  0
   13.1513  -16.0603   -8.7578 H   0  0  0  0  0  0  0  0  0  0  0  0
   13.1416  -16.6946   -7.7552 H   0  0  0  0  0  0  0  0  0  0  0  0
   13.9560  -18.2771   -6.8268 H   0  0  0  0  0  0  0  0  0  0  0  0
   15.4971  -19.8361   -7.2979 H   0  0  0  0  0  0  0  0  0  0  0  0
   16.8199  -19.7716   -9.8793 H   0  0  0  0  0  0  0  0  0  0  0  0
   17.2690  -19.3895  -11.3146 H   0  0  0  0  0  0  0  0  0  0  0  0
   16.4638  -17.7004  -12.4257 H   0  0  0  0  0  0  0  0  0  0  0  0
   17.7488  -23.4805   -5.8655 H   0  0  0  0  0  0  0  0  0  0  0  0
   16.6791  -22.1610   -5.9067 H   0  0  0  0  0  0  0  0  0  0  0  0
   19.4310  -23.3172   -9.2743 H   0  0  0  0  0  0  0  0  0  0  0  0
   19.3237  -24.1421   -7.7928 H   0  0  0  0  0  0  0  0  0  0  0  0
   19.0169  -24.8823   -6.0686 H   0  0  0  0  0  0  0  0  0  0  0  0
   19.7350  -23.9958   -7.6965 H   0  0  0  0  0  0  0  0  0  0  0  0
   17.3937  -23.7517   -5.8731 H   0  0  0  0  0  0  0  0  0  0  0  0
  1  2  2  3
  2  3  1  0
  3  4  1  0
  4  5  1  0
  5  6  1  0
  5  7  1  0
  7  8  1  0
  8  9  1  0
  9 10  1  0
 10 11  1  0
 11 12  2  3
 11 13  1  0
 13 14  1  0
 14 15  1  0
 15 16  1  0
 16 17  1  0
  2 18  1  0
 18 19  1  0
 19 20  1  0
 20 21  1  0
 19 22  1  0
 22 23  1  0
 23 24  1  0
 24 25  1  0
 25 26  1  0
 26 27  1  0
 27 28  1  0
 28 29  1  0
 27 30  1  0
 30 31  1  0
 31 32  1  0
 32 33  1  0
 33 34  1  0
 34 35  1  0
 35 36  1  0
 36 37  1  0
  8  4  1  0
 17 10  1  0
 30 22  1  0
 35 31  1  0
 17 13  1  0
 31 22  1  0
 35 32  1  0
 30 23  1  0
 36 32  1  0
 28 24  1  0
 29 24  1  0
  1 38  1  0
  1 39  1  0
  3 40  1  0
  3 41  1  0
  4 42  1  0
  5 43  1  0
  6 44  1  0
  8 45  1  0
  9 46  1  0
  9 47  1  0
 10 48  1  0
 12 49  1  0
 12 50  1  0
 13 51  1  0
 14 52  1  0
 14 53  1  0
 15 54  1  0
 15 55  1  0
 16 56  1  0
 16 57  1  0
 17 58  1  0
 19 59  1  0
 20 60  1  0
 21 61  1  0
 21 62  1  0
 21 63  1  0
 23 64  1  0
 25 65  1  0
 25 66  1  0
 26 67  1  0
 26 68  1  0
 27 69  1  0
 28 70  1  0
 29 71  1  0
 29 72  1  0
 33 73  1  0
 33 74  1  0
 34 75  1  0
 34 76  1  0
 37 77  1  0
 37 78  1  0
 37 79  1  0
M  END
