
     RDKit          2D

 61 65  0  0  0  0  0  0  0  0999 V2000
   21.2308  -24.7950   -7.0866 C   0  0  0  0  0  0  0  0  0  0  0  0
   20.1399  -23.8887   -7.5747 C   0  0  0  0  0  0  0  0  0  0  0  0
   19.0490  -22.9823   -8.0629 C   0  0  0  0  0  0  0  0  0  0  0  0
   17.9581  -22.0759   -8.5511 C   0  0  0  0  0  0  0  0  0  0  0  0
   18.4893  -22.1895   -9.9493 N   0  0  0  0  0  0  0  0  0  0  0  0
   16.8672  -21.1695   -9.0394 C   0  0  0  0  0  0  0  0  0  0  0  0
   15.7763  -20.2631   -9.5275 N   0  0  0  0  0  0  0  0  0  0  0  0
   14.5660  -19.4210   -9.2512 C   0  0  0  0  0  0  0  0  0  0  0  0
   14.0351  -19.3070   -7.8528 C   0  0  0  0  0  0  0  0  0  0  0  0
   13.5042  -19.1929   -6.4546 Cl  0  0  0  0  0  0  0  0  0  0  0  0
   13.8867  -18.6931  -10.3731 C   0  0  0  0  0  0  0  0  0  0  0  0
   13.8010  -18.3387  -11.8281 C   0  0  0  0  0  0  0  0  0  0  0  0
   13.7153  -17.9843  -13.2831 C   0  0  0  0  0  0  0  0  0  0  0  0
   13.6296  -17.6300  -14.7381 Se  0  0  0  0  0  2  0  0  0  0  0  0
   15.0112  -19.1808  -12.1045 C   0  0  0  0  0  0  0  0  0  0  0  0
   16.2215  -20.0228  -12.3808 C   0  0  0  0  0  0  0  0  0  0  0  0
   17.4316  -20.8648  -12.6572 O   0  0  0  0  0  0  0  0  0  0  0  0
   15.0969  -19.5351  -10.6494 C   0  0  0  0  0  0  0  0  0  0  0  0
   18.5160  -22.8710   -6.6653 C   0  0  0  0  0  0  0  0  0  0  0  0
   17.7678  -22.5737   -5.3996 C   0  0  0  0  0  0  0  0  0  0  0  0
   18.4460  -23.3031   -4.2781 C   0  0  0  0  0  0  0  0  0  0  0  0
   19.6134  -24.0512   -4.8505 C   0  0  0  0  0  0  0  0  0  0  0  0
   19.6566  -23.7841   -6.3259 C   0  0  0  0  0  0  0  0  0  0  0  0
   20.3349  -24.5135   -5.2043 C   0  0  0  0  0  0  0  0  0  0  0  0
   19.5867  -24.2162   -3.9386 C   0  0  0  0  0  0  0  0  0  0  0  0
   20.6159  -25.1060   -3.3070 C   0  0  0  0  0  0  0  0  0  0  0  0
   22.3218  -25.7015   -6.5983 H   0  0  0  0  0  0  0  0  0  0  0  0
   22.2148  -25.3174   -8.0910 H   0  0  0  0  0  0  0  0  0  0  0  0
   20.6965  -24.6855   -5.6892 H   0  0  0  0  0  0  0  0  0  0  0  0
   19.9065  -24.0933   -6.8406 H   0  0  0  0  0  0  0  0  0  0  0  0
   20.8646  -23.7177   -8.8770 H   0  0  0  0  0  0  0  0  0  0  0  0
   19.7110  -23.2032   -9.3907 H   0  0  0  0  0  0  0  0  0  0  0  0
   17.2978  -21.8525   -7.2229 H   0  0  0  0  0  0  0  0  0  0  0  0
   17.9377  -21.5341  -11.1806 H   0  0  0  0  0  0  0  0  0  0  0  0
   19.6802  -22.9818  -10.4009 H   0  0  0  0  0  0  0  0  0  0  0  0
   17.2607  -21.1727  -10.4867 H   0  0  0  0  0  0  0  0  0  0  0  0
   16.3366  -21.0549   -7.6409 H   0  0  0  0  0  0  0  0  0  0  0  0
   12.9406  -18.4053   -8.3421 H   0  0  0  0  0  0  0  0  0  0  0  0
   15.1296  -20.2085   -7.3637 H   0  0  0  0  0  0  0  0  0  0  0  0
   12.7399  -17.9715   -9.7295 H   0  0  0  0  0  0  0  0  0  0  0  0
   12.5908  -17.4967  -11.5517 H   0  0  0  0  0  0  0  0  0  0  0  0
   12.6391  -16.9854  -12.9764 H   0  0  0  0  0  0  0  0  0  0  0  0
   14.7730  -18.9327  -13.7648 H   0  0  0  0  0  0  0  0  0  0  0  0
   12.6715  -16.5710  -15.1969 H   0  0  0  0  0  0  0  0  0  0  0  0
   15.0737  -18.9317  -13.5822 H   0  0  0  0  0  0  0  0  0  0  0  0
   15.7285  -20.2737  -13.7750 H   0  0  0  0  0  0  0  0  0  0  0  0
   16.7144  -19.7719  -10.9865 H   0  0  0  0  0  0  0  0  0  0  0  0
   18.4724  -21.0541  -11.5937 H   0  0  0  0  0  0  0  0  0  0  0  0
   17.4159  -21.9628   -7.1290 H   0  0  0  0  0  0  0  0  0  0  0  0
   16.8950  -21.7461   -6.2958 H   0  0  0  0  0  0  0  0  0  0  0  0
   16.8371  -22.1034   -4.3214 H   0  0  0  0  0  0  0  0  0  0  0  0
   18.0300  -23.2872   -2.8370 H   0  0  0  0  0  0  0  0  0  0  0  0
   20.1065  -24.6740   -3.5781 H   0  0  0  0  0  0  0  0  0  0  0  0
   20.8090  -24.9531   -4.7664 H   0  0  0  0  0  0  0  0  0  0  0  0
   20.8642  -24.6118   -6.6524 H   0  0  0  0  0  0  0  0  0  0  0  0
   21.3536  -25.0757   -6.1508 H   0  0  0  0  0  0  0  0  0  0  0  0
   21.3040  -25.3820   -4.4584 H   0  0  0  0  0  0  0  0  0  0  0  0
   19.0537  -24.1050   -2.5409 H   0  0  0  0  0  0  0  0  0  0  0  0
   21.6451  -25.9959   -2.6754 H   0  0  0  0  0  0  0  0  0  0  0  0
   19.9781  -24.8921   -1.9663 H   0  0  0  0  0  0  0  0  0  0  0  0
   21.4838  -25.5289   -4.4551 H   0  0  0  0  0  0  0  0  0  0  0  0
  1  2  1  0
  2  3  1  0
  3  4  1  0
  4  5  1  0
  4  6  1  0
  6  7  1  0
  7  8  1  0
  8  9  1  0
  9 10  1  0
  8 11  1  0
 11 12  1  0
 12 13  1  0
 13 14  1  0
 12 15  1  0
 15 16  1  0
 16 17  1  0
 15 18  1  0
  3 19  1  0
 19 20  1  0
 20 21  1  0
 21 22  1  0
 22 23  1  0
 23 24  1  0
 24 25  1  0
 25 26  1  0
 18  7  1  0
 23 19  1  0
 18  8  1  0
 25 21  1  0
 18 11  1  0
  1 27  1  0
  1 28  1  0
  1 29  1  0
  2 30  1  0
  2 31  1  0
  3 32  1  0
  4 33  1  0
  5 34  1  0
  5 35  1  0
  6 36  1  0
  6 37  1  0
  9 38  1  0
  9 39  1  0
 11 40  1  0
 12 41  1  0
 13 42  1  0
 13 43  1  0
 14 44  1  0
 15 45  1  0
 16 46  1  0
 16 47  1  0
 17 48  1  0
 19 49  1  0
 20 50  1  0
 20 51  1  0
 21 52  1  0
 22 53  1  0
 22 54  1  0
 23 55  1  0
 24 56  1  0
 24 57  1  0
 25 58  1  0
 26 59  1  0
 26 60  1  0
 26 61  1  0
M  END
