
     RDKit          2D

 27 28  0  0  0  0  0  0  0  0999 V2000
   -2.9159   17.6984    0.7766 C   0  0  0  0  0  0  0  0  0  0  0  0
   -3.4541   18.6737    1.7811 C   0  0  0  0  0  0  0  0  0  0  0  0
   -3.1822   20.1445    1.8954 C   0  0  0  0  0  0  0  0  0  0  0  0
   -2.3049   21.0031    1.0332 C   0  0  0  0  0  0  0  0  0  0  0  0
   -2.1152   22.4746    1.2540 C   0  0  0  0  0  0  0  0  0  0  0  0
   -1.1759   22.9839    0.2012 C   0  0  0  0  0  0  0  0  0  0  0  0
   -0.7851   21.8272   -0.6702 N   0  0  0  0  0  0  0  0  0  0  0  0
   -1.4829   20.6030   -0.1560 C   0  0  0  0  0  0  0  0  0  0  0  0
   -1.3351   19.2456   -0.7768 C   0  0  0  0  0  0  0  0  0  0  0  0
   -1.9729   17.9529   -0.3618 C   0  0  0  0  0  0  0  0  0  0  0  0
   -3.7438   16.7004    1.5306 H   0  0  0  0  0  0  0  0  0  0  0  0
   -2.8831   16.2815    0.2854 H   0  0  0  0  0  0  0  0  0  0  0  0
   -4.3269   18.8981    2.9803 H   0  0  0  0  0  0  0  0  0  0  0  0
   -4.1722   17.4767    2.3302 H   0  0  0  0  0  0  0  0  0  0  0  0
   -3.4426   21.4222    2.6366 H   0  0  0  0  0  0  0  0  0  0  0  0
   -4.1104   20.0687    3.0712 H   0  0  0  0  0  0  0  0  0  0  0  0
   -2.4108   19.5427    0.7077 H   0  0  0  0  0  0  0  0  0  0  0  0
   -3.0377   22.4428    2.4363 H   0  0  0  0  0  0  0  0  0  0  0  0
   -2.1221   23.9020    1.7150 H   0  0  0  0  0  0  0  0  0  0  0  0
   -1.3792   24.3048    0.8823 H   0  0  0  0  0  0  0  0  0  0  0  0
   -0.2792   23.7694   -0.7091 H   0  0  0  0  0  0  0  0  0  0  0  0
    0.1408   21.8847   -1.8489 H   0  0  0  0  0  0  0  0  0  0  0  0
   -0.7348   20.6348   -1.1128 H   0  0  0  0  0  0  0  0  0  0  0  0
   -0.7062   18.4120   -1.8537 H   0  0  0  0  0  0  0  0  0  0  0  0
   -0.5951   19.8178   -1.5522 H   0  0  0  0  0  0  0  0  0  0  0  0
   -2.1324   16.4840   -0.6207 H   0  0  0  0  0  0  0  0  0  0  0  0
   -1.2138   17.3830   -1.5234 H   0  0  0  0  0  0  0  0  0  0  0  0
  1  2  1  0
  2  3  1  0
  3  4  1  0
  4  5  1  0
  5  6  1  0
  6  7  1  0
  7  8  1  0
  8  9  1  0
  9 10  1  0
 10  1  1  0
  8  4  1  0
  1 11  1  0
  1 12  1  0
  2 13  1  0
  2 14  1  0
  3 15  1  0
  3 16  1  0
  4 17  1  0
  5 18  1  0
  5 19  1  0
  6 20  1  0
  6 21  1  0
  7 22  1  0
  8 23  1  0
  9 24  1  0
  9 25  1  0
 10 26  1  0
 10 27  1  0
M  END
