
     RDKit          2D

 34 35  0  0  0  0  0  0  0  0999 V2000
   10.7984  -25.1517   -6.0600 C   0  0  0  0  0  0  0  0  0  0  0  0
   12.1181  -25.6008   -5.5060 C   0  0  0  0  0  0  0  0  0  0  0  0
   13.4377  -26.0500   -4.9521 C   0  0  0  0  0  0  0  0  0  0  0  0
   14.7573  -26.4990   -4.3982 O   0  0  0  0  0  0  0  0  0  0  0  0
   12.7789  -24.3927   -6.1009 C   0  0  0  0  0  0  0  0  0  0  0  0
   13.4397  -23.1846   -6.6958 C   0  0  0  0  0  0  0  0  0  0  0  0
   14.8546  -23.4185   -6.2558 C   0  0  0  0  0  0  0  0  0  0  0  0
   12.2544  -22.5312   -7.3423 C   0  0  0  0  0  0  0  0  0  0  0  0
   13.6092  -21.8954   -7.4434 C   0  0  0  0  0  0  0  0  0  0  0  0
   15.0828  -21.6815   -7.2632 C   0  0  0  0  0  0  0  0  0  0  0  0
   16.4376  -21.0456   -7.3643 N   0  0  0  0  0  0  0  0  0  0  0  0
   15.2523  -20.3922   -8.0108 C   0  0  0  0  0  0  0  0  0  0  0  0
   15.9132  -19.1841   -8.6057 C   0  0  0  0  0  0  0  0  0  0  0  0
    9.4788  -24.7026   -6.6138 H   0  0  0  0  0  0  0  0  0  0  0  0
   10.1379  -26.3606   -5.4665 H   0  0  0  0  0  0  0  0  0  0  0  0
   11.1200  -23.8700   -6.7698 H   0  0  0  0  0  0  0  0  0  0  0  0
   11.4573  -26.8089   -4.9111 H   0  0  0  0  0  0  0  0  0  0  0  0
   13.1740  -26.7143   -4.5993 H   0  0  0  0  0  0  0  0  0  0  0  0
   13.0030  -26.6561   -4.6711 H   0  0  0  0  0  0  0  0  0  0  0  0
   14.8446  -27.7689   -3.6045 H   0  0  0  0  0  0  0  0  0  0  0  0
   11.4588  -23.9422   -6.6525 H   0  0  0  0  0  0  0  0  0  0  0  0
   14.0087  -24.9871   -5.4809 H   0  0  0  0  0  0  0  0  0  0  0  0
   16.2694  -23.6524   -5.8159 H   0  0  0  0  0  0  0  0  0  0  0  0
   15.7561  -22.3211   -6.7386 H   0  0  0  0  0  0  0  0  0  0  0  0
   14.6077  -24.7029   -5.5213 H   0  0  0  0  0  0  0  0  0  0  0  0
   11.4415  -21.5370   -8.1174 H   0  0  0  0  0  0  0  0  0  0  0  0
   10.9683  -23.2808   -7.1576 H   0  0  0  0  0  0  0  0  0  0  0  0
   13.0944  -20.7419   -8.2526 H   0  0  0  0  0  0  0  0  0  0  0  0
   15.5978  -22.8349   -6.4540 H   0  0  0  0  0  0  0  0  0  0  0  0
   17.9042  -21.0557   -7.0494 H   0  0  0  0  0  0  0  0  0  0  0  0
   13.8995  -20.0054   -8.5305 H   0  0  0  0  0  0  0  0  0  0  0  0
   16.5740  -17.9760   -9.2005 H   0  0  0  0  0  0  0  0  0  0  0  0
   14.5666  -18.5854   -8.8857 H   0  0  0  0  0  0  0  0  0  0  0  0
   17.2597  -19.7828   -8.3256 H   0  0  0  0  0  0  0  0  0  0  0  0
  1  2  1  0
  2  3  1  0
  3  4  1  0
  2  5  1  0
  5  6  1  0
  6  7  1  0
  6  8  1  0
  8  9  1  0
  9 10  1  0
 10 11  1  0
 11 12  1  0
 12 13  1  0
  9  6  1  0
 12 10  1  0
  1 14  1  0
  1 15  1  0
  1 16  1  0
  2 17  1  0
  3 18  1  0
  3 19  1  0
  4 20  1  0
  5 21  1  0
  5 22  1  0
  7 23  1  0
  7 24  1  0
  7 25  1  0
  8 26  1  0
  8 27  1  0
  9 28  1  0
 10 29  1  0
 11 30  1  0
 12 31  1  0
 13 32  1  0
 13 33  1  0
 13 34  1  0
M  END
