
     RDKit          2D

 34 35  0  0  0  0  0  0  0  0999 V2000
   -2.2532   21.7853   -1.6624 C   0  0  0  0  0  0  0  0  0  0  0  0
   -2.3692   20.6517   -0.6871 C   0  0  0  0  0  0  0  0  0  0  0  0
   -2.4852   19.5179    0.2881 C   0  0  0  0  0  0  0  0  0  0  0  0
   -3.3050   20.3843    1.1978 N   0  0  0  0  0  0  0  0  0  0  0  0
   -3.4210   19.2506    2.1731 C   0  0  0  0  0  0  0  0  0  0  0  0
   -3.5370   18.1168    3.1484 C   0  0  0  0  0  0  0  0  0  0  0  0
   -2.6012   18.3842    1.2635 C   0  0  0  0  0  0  0  0  0  0  0  0
   -2.6165   17.1533    2.1207 Br  0  0  0  0  0  0  0  0  0  0  0  0
   -1.7815   17.5178    0.3539 C   0  0  0  0  0  0  0  0  0  0  0  0
   -1.6654   18.6515   -0.6214 C   0  0  0  0  0  0  0  0  0  0  0  0
   -1.5494   19.7853   -1.5967 C   0  0  0  0  0  0  0  0  0  0  0  0
   -1.4334   20.9190   -2.5720 C   0  0  0  0  0  0  0  0  0  0  0  0
   -1.1721   18.8164   -2.6779 C   0  0  0  0  0  0  0  0  0  0  0  0
   -0.7949   17.8477   -3.7592 O   0  0  0  0  0  0  0  0  0  0  0  0
   -2.1372   22.9191   -2.6377 H   0  0  0  0  0  0  0  0  0  0  0  0
   -3.0732   22.6517   -0.7530 H   0  0  0  0  0  0  0  0  0  0  0  0
   -1.8154   21.4845   -2.2568 H   0  0  0  0  0  0  0  0  0  0  0  0
   -3.1890   21.5180    0.2224 H   0  0  0  0  0  0  0  0  0  0  0  0
   -1.5457   20.0854   -1.8056 H   0  0  0  0  0  0  0  0  0  0  0  0
   -3.8026   21.7986    1.1513 H   0  0  0  0  0  0  0  0  0  0  0  0
   -4.2408   20.1170    3.0826 H   0  0  0  0  0  0  0  0  0  0  0  0
   -3.6531   16.9832    4.1237 H   0  0  0  0  0  0  0  0  0  0  0  0
   -4.3504   18.9856    4.0615 H   0  0  0  0  0  0  0  0  0  0  0  0
   -2.7439   17.1164    2.3610 H   0  0  0  0  0  0  0  0  0  0  0  0
   -0.9617   16.6514   -0.5557 H   0  0  0  0  0  0  0  0  0  0  0  0
   -1.8975   16.3841    1.3292 H   0  0  0  0  0  0  0  0  0  0  0  0
   -0.8659   17.6534   -1.4054 H   0  0  0  0  0  0  0  0  0  0  0  0
   -1.8874   20.9996   -0.7836 H   0  0  0  0  0  0  0  0  0  0  0  0
   -1.3174   22.0527   -3.5473 H   0  0  0  0  0  0  0  0  0  0  0  0
   -1.0471   20.0954   -3.7647 H   0  0  0  0  0  0  0  0  0  0  0  0
   -1.7692   22.1336   -1.7584 H   0  0  0  0  0  0  0  0  0  0  0  0
   -1.0104   19.8237   -3.7777 H   0  0  0  0  0  0  0  0  0  0  0  0
   -1.2418   17.5731   -1.8419 H   0  0  0  0  0  0  0  0  0  0  0  0
   -0.5057   18.3451   -5.1445 H   0  0  0  0  0  0  0  0  0  0  0  0
  1  2  1  0
  2  3  1  0
  3  4  1  0
  4  5  1  0
  5  6  1  0
  5  7  1  0
  7  8  1  0
  7  9  1  0
  9 10  1  0
 10 11  1  0
 11 12  1  0
 11 13  1  0
 13 14  1  0
  7  3  1  0
 10  3  1  0
  1 15  1  0
  1 16  1  0
  1 17  1  0
  2 18  1  0
  2 19  1  0
  4 20  1  0
  5 21  1  0
  6 22  1  0
  6 23  1  0
  6 24  1  0
  9 25  1  0
  9 26  1  0
 10 27  1  0
 11 28  1  0
 12 29  1  0
 12 30  1  0
 12 31  1  0
 13 32  1  0
 13 33  1  0
 14 34  1  0
M  END
