
     RDKit          2D

 28 29  0  0  0  0  0  0  0  0999 V2000
   18.2160  -20.9237  -16.2279 O   0  0  0  0  0  0  0  0  0  0  0  0
   17.8892  -20.3654  -14.8746 C   0  0  0  0  0  0  0  0  0  0  0  0
   17.5625  -19.8070  -13.5213 O   0  0  0  0  0  0  0  0  0  0  0  0
   17.9125  -18.3860  -13.1917 C   0  0  0  0  0  0  0  0  0  0  0  0
   18.4919  -18.2105  -14.5641 C   0  0  0  0  0  0  0  0  0  0  0  0
   18.8420  -16.7896  -14.2345 C   0  0  0  0  0  0  0  0  0  0  0  0
   19.4214  -16.6140  -15.6070 C   0  0  0  0  0  0  0  0  0  0  0  0
   19.0713  -18.0349  -15.9366 C   0  0  0  0  0  0  0  0  0  0  0  0
   17.3331  -18.5617  -11.8194 C   0  0  0  0  0  0  0  0  0  0  0  0
   16.9810  -19.9818  -12.1497 C   0  0  0  0  0  0  0  0  0  0  0  0
   16.4016  -20.1574  -10.7773 O   0  0  0  0  0  0  0  0  0  0  0  0
   16.7538  -18.7372  -10.4470 C   0  0  0  0  0  0  0  0  0  0  0  0
   17.8660  -22.3446  -16.5574 H   0  0  0  0  0  0  0  0  0  0  0  0
   18.2239  -19.7064  -15.1735 H   0  0  0  0  0  0  0  0  0  0  0  0
   17.2951  -21.6831  -14.4743 H   0  0  0  0  0  0  0  0  0  0  0  0
   18.1892  -16.9972  -12.6974 H   0  0  0  0  0  0  0  0  0  0  0  0
   18.4286  -18.8820  -14.9892 H   0  0  0  0  0  0  0  0  0  0  0  0
   19.1921  -15.3688  -13.9050 H   0  0  0  0  0  0  0  0  0  0  0  0
   18.3096  -16.7908  -12.8322 H   0  0  0  0  0  0  0  0  0  0  0  0
   20.0008  -16.4385  -16.9794 H   0  0  0  0  0  0  0  0  0  0  0  0
   19.7715  -15.1932  -15.2774 H   0  0  0  0  0  0  0  0  0  0  0  0
   18.7211  -19.4558  -16.2661 H   0  0  0  0  0  0  0  0  0  0  0  0
   19.6506  -17.8593  -17.3090 H   0  0  0  0  0  0  0  0  0  0  0  0
   17.6853  -17.1415  -11.4890 H   0  0  0  0  0  0  0  0  0  0  0  0
   16.6289  -21.4020  -12.4801 H   0  0  0  0  0  0  0  0  0  0  0  0
   17.4579  -20.1551  -13.5612 H   0  0  0  0  0  0  0  0  0  0  0  0
   17.1059  -17.3171  -10.1166 H   0  0  0  0  0  0  0  0  0  0  0  0
   16.1744  -18.9128   -9.0746 H   0  0  0  0  0  0  0  0  0  0  0  0
  1  2  1  0
  2  3  1  0
  3  4  1  0
  4  5  1  0
  5  6  1  0
  6  7  1  0
  7  8  1  0
  4  9  1  0
  9 10  1  0
 10 11  1  0
 11 12  1  0
  8  5  1  0
 12  9  1  0
  1 13  1  0
  2 14  1  0
  2 15  1  0
  4 16  1  0
  5 17  1  0
  6 18  1  0
  6 19  1  0
  7 20  1  0
  7 21  1  0
  8 22  1  0
  8 23  1  0
  9 24  1  0
 10 25  1  0
 10 26  1  0
 12 27  1  0
 12 28  1  0
M  END
