
     RDKit          2D

106114  0  0  0  0  0  0  0  0999 V2000
   25.8905  -17.0217  -19.8097 C   0  0  0  0  0  0  0  0  0  0  0  0
   24.6566  -17.3206  -19.0109 C   0  0  0  0  0  0  0  0  0  0  0  0
   23.4226  -17.6194  -18.2121 C   0  0  0  0  0  0  0  0  0  0  0  0
   22.1887  -17.9182  -17.4133 C   0  0  0  0  0  0  0  0  0  0  0  0
   20.9548  -18.2171  -16.6145 C   0  0  0  0  0  0  0  0  0  0  0  0
   19.7208  -18.5159  -15.8156 C   0  0  0  0  0  0  0  0  0  0  0  0
   21.8039  -18.7789  -15.5130 C   0  0  0  0  0  0  0  0  0  0  0  0
   22.6530  -19.3407  -14.4115 C   0  0  0  0  0  0  0  0  0  0  0  0
   23.5022  -19.9026  -13.3100 C   0  0  0  0  0  0  0  0  0  0  0  0
   24.3513  -20.4644  -12.2085 C   0  0  0  0  0  0  0  0  0  0  0  0
   25.2005  -21.0262  -11.1071 C   0  0  0  0  0  0  0  0  0  0  0  0
   22.2684  -20.1996  -12.5104 C   0  0  0  0  0  0  0  0  0  0  0  0
   21.0346  -20.4966  -11.7107 O   0  0  0  0  0  0  0  0  0  0  0  0
   21.4192  -19.6374  -13.6117 S   0  0  0  0  0  0  0  0  0  0  0  0
   19.9262  -19.6135  -13.4698 C   0  0  0  0  0  0  0  0  0  0  0  0
   18.4331  -19.5896  -13.3279 C   0  0  0  0  0  0  0  0  0  0  0  0
   16.9400  -19.5658  -13.1860 C   0  0  0  0  0  0  0  0  0  0  0  0
   15.4469  -19.5419  -13.0442 C   0  0  0  0  0  0  0  0  0  0  0  0
   15.3043  -20.1635  -11.6865 C   0  0  0  0  0  0  0  0  0  0  0  0
   14.0844  -19.7368  -12.4479 C   0  0  0  0  0  0  0  0  0  0  0  0
   13.9417  -20.3584  -11.0902 C   0  0  0  0  0  0  0  0  0  0  0  0
   12.4441  -20.2903  -11.0432 C   0  0  0  0  0  0  0  0  0  0  0  0
   11.9946  -20.8705   -9.7349 C   0  0  0  0  0  0  0  0  0  0  0  0
   13.2144  -21.2972   -8.9735 C   0  0  0  0  0  0  0  0  0  0  0  0
   14.4179  -20.9807   -9.8112 C   0  0  0  0  0  0  0  0  0  0  0  0
   14.5884  -21.6166   -8.4633 C   0  0  0  0  0  0  0  0  0  0  0  0
   16.0834  -21.7286   -8.4155 N   0  0  0  0  0  0  0  0  0  0  0  0
   14.2397  -22.2135   -7.1322 C   0  0  0  0  0  0  0  0  0  0  0  0
   14.4102  -22.8494   -5.7843 C   0  0  0  0  0  0  0  0  0  0  0  0
   12.9743  -22.9581   -5.3642 C   0  0  0  0  0  0  0  0  0  0  0  0
   15.6136  -22.5329   -6.6219 C   0  0  0  0  0  0  0  0  0  0  0  0
   16.7007  -23.0211   -5.7109 C   0  0  0  0  0  0  0  0  0  0  0  0
   17.7309  -22.6148   -6.7227 C   0  0  0  0  0  0  0  0  0  0  0  0
   18.8181  -23.1030   -5.8117 C   0  0  0  0  0  0  0  0  0  0  0  0
   20.1703  -23.4418   -5.2580 C   0  0  0  0  0  0  0  0  0  0  0  0
   19.0227  -23.9279   -4.0585 C   0  0  0  0  0  0  0  0  0  0  0  0
   17.7878  -23.5093   -4.8000 C   0  0  0  0  0  0  0  0  0  0  0  0
   18.5033  -24.0991   -3.6210 C   0  0  0  0  0  0  0  0  0  0  0  0
   18.7772  -24.7329   -2.2893 O   0  0  0  0  0  0  0  0  0  0  0  0
   20.2498  -24.6912   -2.5723 C   0  0  0  0  0  0  0  0  0  0  0  0
   21.7222  -24.6494   -2.8554 O   0  0  0  0  0  0  0  0  0  0  0  0
   19.9758  -24.0574   -3.9040 C   0  0  0  0  0  0  0  0  0  0  0  0
   23.0377  -18.4813  -16.3124 N   0  0  0  0  0  0  0  0  0  0  0  0
   23.7247  -17.1559  -16.1658 C   0  0  0  0  0  0  0  0  0  0  0  0
   27.1244  -16.7229  -20.6085 H   0  0  0  0  0  0  0  0  0  0  0  0
   25.0408  -16.4697  -20.9157 H   0  0  0  0  0  0  0  0  0  0  0  0
   26.7402  -17.5737  -18.7036 H   0  0  0  0  0  0  0  0  0  0  0  0
   23.8072  -16.7643  -20.1150 H   0  0  0  0  0  0  0  0  0  0  0  0
   25.5060  -17.8768  -17.9067 H   0  0  0  0  0  0  0  0  0  0  0  0
   22.7302  -17.0266  -19.4034 H   0  0  0  0  0  0  0  0  0  0  0  0
   24.4159  -18.1393  -17.2156 H   0  0  0  0  0  0  0  0  0  0  0  0
   21.8204  -17.6080  -18.0486 H   0  0  0  0  0  0  0  0  0  0  0  0
   21.6605  -17.6467  -17.9451 H   0  0  0  0  0  0  0  0  0  0  0  0
   20.1056  -17.6552  -17.7160 H   0  0  0  0  0  0  0  0  0  0  0  0
   18.5995  -18.8805  -14.8883 H   0  0  0  0  0  0  0  0  0  0  0  0
   20.5702  -19.0736  -14.7121 H   0  0  0  0  0  0  0  0  0  0  0  0
   18.5981  -18.0472  -16.6931 H   0  0  0  0  0  0  0  0  0  0  0  0
   20.5701  -19.0765  -14.7136 H   0  0  0  0  0  0  0  0  0  0  0  0
   23.9811  -19.1151  -15.0713 H   0  0  0  0  0  0  0  0  0  0  0  0
   21.2505  -19.4923  -13.9018 H   0  0  0  0  0  0  0  0  0  0  0  0
   24.7360  -19.6055  -14.1097 H   0  0  0  0  0  0  0  0  0  0  0  0
   25.5853  -20.1652  -13.0072 H   0  0  0  0  0  0  0  0  0  0  0  0
   23.2301  -20.8298  -11.2815 H   0  0  0  0  0  0  0  0  0  0  0  0
   26.0497  -21.5881  -10.0055 H   0  0  0  0  0  0  0  0  0  0  0  0
   26.4345  -20.7265  -11.9054 H   0  0  0  0  0  0  0  0  0  0  0  0
   23.9666  -21.3260  -10.3086 H   0  0  0  0  0  0  0  0  0  0  0  0
   22.9607  -20.7938  -11.3197 H   0  0  0  0  0  0  0  0  0  0  0  0
   21.1530  -21.1316  -10.3569 H   0  0  0  0  0  0  0  0  0  0  0  0
   19.4500  -18.9897  -14.7481 H   0  0  0  0  0  0  0  0  0  0  0  0
   20.0445  -20.2505  -12.1169 H   0  0  0  0  0  0  0  0  0  0  0  0
   18.1456  -18.7792  -14.5569 H   0  0  0  0  0  0  0  0  0  0  0  0
   18.5394  -20.4033  -12.0723 H   0  0  0  0  0  0  0  0  0  0  0  0
   17.0353  -20.5103  -12.0247 H   0  0  0  0  0  0  0  0  0  0  0  0
   16.8447  -18.6212  -14.3474 H   0  0  0  0  0  0  0  0  0  0  0  0
   15.0710  -18.9120  -14.3526 H   0  0  0  0  0  0  0  0  0  0  0  0
   16.5242  -20.5902  -10.9251 H   0  0  0  0  0  0  0  0  0  0  0  0
   12.8644  -19.3101  -13.2093 H   0  0  0  0  0  0  0  0  0  0  0  0
   12.5867  -19.6687  -12.4008 H   0  0  0  0  0  0  0  0  0  0  0  0
   10.9761  -20.0922  -11.2799 H   0  0  0  0  0  0  0  0  0  0  0  0
   10.6206  -20.5511  -10.2452 H   0  0  0  0  0  0  0  0  0  0  0  0
   11.2578  -21.3839   -8.5334 H   0  0  0  0  0  0  0  0  0  0  0  0
   12.3242  -21.7611   -7.8589 H   0  0  0  0  0  0  0  0  0  0  0  0
   15.8800  -20.9159  -10.1400 H   0  0  0  0  0  0  0  0  0  0  0  0
   16.9093  -21.2426   -9.5695 H   0  0  0  0  0  0  0  0  0  0  0  0
   16.7526  -22.3267   -7.2136 H   0  0  0  0  0  0  0  0  0  0  0  0
   12.7447  -22.1014   -7.1800 H   0  0  0  0  0  0  0  0  0  0  0  0
   14.9110  -23.4693   -4.5136 H   0  0  0  0  0  0  0  0  0  0  0  0
   11.5385  -23.0668   -4.9441 H   0  0  0  0  0  0  0  0  0  0  0  0
   12.5477  -22.3384   -6.6619 H   0  0  0  0  0  0  0  0  0  0  0  0
   13.2227  -23.5864   -4.0249 H   0  0  0  0  0  0  0  0  0  0  0  0
   16.7173  -22.1606   -7.5670 H   0  0  0  0  0  0  0  0  0  0  0  0
   15.8106  -23.4839   -4.5957 H   0  0  0  0  0  0  0  0  0  0  0  0
   18.7612  -22.2086   -7.7344 H   0  0  0  0  0  0  0  0  0  0  0  0
   16.6438  -22.1266   -7.6337 H   0  0  0  0  0  0  0  0  0  0  0  0
   19.6656  -22.6254   -6.9534 H   0  0  0  0  0  0  0  0  0  0  0  0
   21.4861  -23.2063   -5.9386 H   0  0  0  0  0  0  0  0  0  0  0  0
   18.1752  -24.4055   -2.9168 H   0  0  0  0  0  0  0  0  0  0  0  0
   20.0158  -24.4497   -3.0627 H   0  0  0  0  0  0  0  0  0  0  0  0
   17.0919  -24.2395   -3.1331 H   0  0  0  0  0  0  0  0  0  0  0  0
   20.5236  -25.3249   -1.2407 H   0  0  0  0  0  0  0  0  0  0  0  0
   22.6953  -25.1826   -1.8460 H   0  0  0  0  0  0  0  0  0  0  0  0
   21.4730  -24.1153   -3.9752 H   0  0  0  0  0  0  0  0  0  0  0  0
   23.7158  -19.3872  -17.2971 H   0  0  0  0  0  0  0  0  0  0  0  0
   24.2812  -15.7890  -15.8976 H   0  0  0  0  0  0  0  0  0  0  0  0
   24.6615  -17.7358  -17.1837 H   0  0  0  0  0  0  0  0  0  0  0  0
   22.8933  -16.4262  -15.1528 H   0  0  0  0  0  0  0  0  0  0  0  0
  1  2  1  0
  2  3  1  0
  3  4  1  0
  4  5  1  0
  5  6  1  0
  5  7  1  0
  7  8  1  0
  8  9  1  0
  9 10  1  0
 10 11  1  0
  9 12  1  0
 12 13  1  0
 12 14  1  0
 14 15  1  0
 15 16  1  0
 16 17  1  0
 17 18  1  0
 18 19  1  0
 19 20  1  0
 20 21  1  0
 21 22  1  0
 22 23  1  0
 23 24  1  0
 24 25  1  0
 25 26  1  0
 26 27  1  0
 26 28  1  0
 28 29  1  0
 29 30  1  0
 29 31  1  0
 31 32  1  0
 32 33  1  0
 33 34  1  0
 34 35  1  0
 35 36  1  0
 36 37  1  0
 37 38  1  0
 38 39  1  0
 39 40  1  0
 40 41  1  0
 40 42  1  0
  7 43  1  0
 43 44  1  0
 20 18  1  0
 25 21  1  0
 31 28  1  0
 37 32  1  0
 42 38  1  0
 21 19  1  0
 26 24  1  0
 37 34  1  0
 42 35  1  0
  1 45  1  0
  1 46  1  0
  1 47  1  0
  2 48  1  0
  2 49  1  0
  3 50  1  0
  3 51  1  0
  4 52  1  0
  4 53  1  0
  5 54  1  0
  6 55  1  0
  6 56  1  0
  6 57  1  0
  7 58  1  0
  8 59  1  0
  8 60  1  0
  9 61  1  0
 10 62  1  0
 10 63  1  0
 11 64  1  0
 11 65  1  0
 11 66  1  0
 12 67  1  0
 13 68  1  0
 15 69  1  0
 15 70  1  0
 16 71  1  0
 16 72  1  0
 17 73  1  0
 17 74  1  0
 18 75  1  0
 19 76  1  0
 20 77  1  0
 22 78  1  0
 22 79  1  0
 23 80  1  0
 23 81  1  0
 24 82  1  0
 25 83  1  0
 27 84  1  0
 27 85  1  0
 28 86  1  0
 29 87  1  0
 30 88  1  0
 30 89  1  0
 30 90  1  0
 31 91  1  0
 32 92  1  0
 33 93  1  0
 33 94  1  0
 34 95  1  0
 35 96  1  0
 36 97  1  0
 36 98  1  0
 38 99  1  0
 40100  1  0
 41101  1  0
 42102  1  0
 43103  1  0
 44104  1  0
 44105  1  0
 44106  1  0
M  END
