
     RDKit          2D

 30 32  0  0  0  0  0  0  0  0999 V2000
   -2.1120   26.7702    5.7790 O   0  0  0  0  0  0  0  0  0  0  0  0
   -3.2007   27.1756    6.7279 C   0  0  0  0  0  0  0  0  0  0  0  0
   -4.0879   27.0199    5.5285 C   0  0  0  0  0  0  0  0  0  0  0  0
   -5.4919   27.3440    5.9453 C   0  0  0  0  0  0  0  0  0  0  0  0
   -5.4724   27.6999    7.4024 C   0  0  0  0  0  0  0  0  0  0  0  0
   -5.7616   28.0948    8.8203 C   0  0  0  0  0  0  0  0  0  0  0  0
   -5.7420   28.4508   10.2773 C   0  0  0  0  0  0  0  0  0  0  0  0
   -7.1460   28.7748   10.6941 C   0  0  0  0  0  0  0  0  0  0  0  0
   -8.0333   28.6191    9.4947 C   0  0  0  0  0  0  0  0  0  0  0  0
   -8.6542   28.3855    8.1494 C   0  0  0  0  0  0  0  0  0  0  0  0
   -7.1777   28.1989    8.3366 C   0  0  0  0  0  0  0  0  0  0  0  0
   -4.0563   27.5958    7.8860 C   0  0  0  0  0  0  0  0  0  0  0  0
   -0.6959   26.6661    6.2627 H   0  0  0  0  0  0  0  0  0  0  0  0
   -2.0858   27.2465    7.7289 H   0  0  0  0  0  0  0  0  0  0  0  0
   -4.7088   26.7863    4.1832 H   0  0  0  0  0  0  0  0  0  0  0  0
   -2.8137   26.6471    4.8304 H   0  0  0  0  0  0  0  0  0  0  0  0
   -6.9747   27.5628    5.8848 H   0  0  0  0  0  0  0  0  0  0  0  0
   -5.8193   27.0426    4.5128 H   0  0  0  0  0  0  0  0  0  0  0  0
   -6.3280   27.7821    7.1886 H   0  0  0  0  0  0  0  0  0  0  0  0
   -4.9915   28.0208    9.0126 H   0  0  0  0  0  0  0  0  0  0  0  0
   -4.2696   28.1897   10.1599 H   0  0  0  0  0  0  0  0  0  0  0  0
   -5.4147   28.7521   11.7098 H   0  0  0  0  0  0  0  0  0  0  0  0
   -6.5252   29.0084   12.0394 H   0  0  0  0  0  0  0  0  0  0  0  0
   -8.4202   29.1477   11.3922 H   0  0  0  0  0  0  0  0  0  0  0  0
   -9.3075   28.9920   10.1928 H   0  0  0  0  0  0  0  0  0  0  0  0
  -10.0880   28.6900    8.4678 H   0  0  0  0  0  0  0  0  0  0  0  0
   -8.7770   28.0462    6.6934 H   0  0  0  0  0  0  0  0  0  0  0  0
   -7.2198   27.9935    7.4761 H   0  0  0  0  0  0  0  0  0  0  0  0
   -2.7626   27.5789    8.6449 H   0  0  0  0  0  0  0  0  0  0  0  0
   -4.2768   27.8117    8.6211 H   0  0  0  0  0  0  0  0  0  0  0  0
  1  2  1  0
  2  3  1  0
  3  4  1  0
  4  5  1  0
  5  6  1  0
  6  7  1  0
  7  8  1  0
  8  9  1  0
  9 10  1  0
 10 11  1  0
  5 12  1  0
 12  2  1  0
 11  6  1  0
 11  9  1  0
  1 13  1  0
  2 14  1  0
  3 15  1  0
  3 16  1  0
  4 17  1  0
  4 18  1  0
  5 19  1  0
  6 20  1  0
  7 21  1  0
  7 22  1  0
  8 23  1  0
  8 24  1  0
  9 25  1  0
 10 26  1  0
 10 27  1  0
 11 28  1  0
 12 29  1  0
 12 30  1  0
M  END
