
     RDKit          2D

 74 79  0  0  0  0  0  0  0  0999 V2000
   17.8456   28.8161    2.9730 C   0  0  0  0  0  0  0  0  0  0  0  0
   16.4654   28.2486    3.1246 C   0  0  0  0  0  0  0  0  0  0  0  0
   15.0852   27.6810    3.2762 C   0  0  0  0  0  0  0  0  0  0  0  0
   13.7051   27.1135    3.4278 C   0  0  0  0  0  0  0  0  0  0  0  0
   12.3248   26.5459    3.5793 C   0  0  0  0  0  0  0  0  0  0  0  0
   10.9447   25.9784    3.7309 C   0  0  0  0  0  0  0  0  0  0  0  0
   10.6007   25.1546    4.9364 C   0  0  0  0  0  0  0  0  0  0  0  0
    9.2205   24.5871    5.0879 C   0  0  0  0  0  0  0  0  0  0  0  0
    7.8402   24.0196    5.2396 C   0  0  0  0  0  0  0  0  0  0  0  0
    6.4601   23.4520    5.3911 C   0  0  0  0  0  0  0  0  0  0  0  0
    5.3104   22.4943    5.2859 C   0  0  0  0  0  0  0  0  0  0  0  0
    3.9763   22.8572    5.8675 C   0  0  0  0  0  0  0  0  0  0  0  0
    3.7918   24.1778    6.5546 C   0  0  0  0  0  0  0  0  0  0  0  0
    2.3589   24.1879    6.9980 C   0  0  0  0  0  0  0  0  0  0  0  0
    1.6323   22.9311    6.6205 C   0  0  0  0  0  0  0  0  0  0  0  0
    1.4821   25.1598    7.7305 C   0  0  0  0  0  0  0  0  0  0  0  0
    1.6751   26.5244    8.3229 C   0  0  0  0  0  0  0  0  0  0  0  0
    1.4906   27.8450    9.0099 O   0  0  0  0  0  0  0  0  0  0  0  0
    2.8247   27.4821    8.4282 C   0  0  0  0  0  0  0  0  0  0  0  0
    3.2031   28.8336    8.9576 C   0  0  0  0  0  0  0  0  0  0  0  0
    3.5814   30.1851    9.4871 C   0  0  0  0  0  0  0  0  0  0  0  0
    3.9597   31.5366   10.0165 C   0  0  0  0  0  0  0  0  0  0  0  0
    2.1726   30.3952    9.9573 C   0  0  0  0  0  0  0  0  0  0  0  0
    0.7639   30.6054   10.4276 N   0  0  0  0  0  0  0  0  0  0  0  0
    4.2577   27.4720    7.9847 C   0  0  0  0  0  0  0  0  0  0  0  0
    5.6917   27.8154    7.7096 C   0  0  0  0  0  0  0  0  0  0  0  0
    5.1345   26.5000    7.2522 C   0  0  0  0  0  0  0  0  0  0  0  0
    6.2789   25.8090    6.5719 C   0  0  0  0  0  0  0  0  0  0  0  0
    4.9414   25.1356    6.6598 C   0  0  0  0  0  0  0  0  0  0  0  0
    6.2756   24.7726    6.0781 N   0  0  0  0  0  0  0  0  0  0  0  0
   19.2258   29.3835    2.8214 H   0  0  0  0  0  0  0  0  0  0  0  0
   18.2746   27.5777    2.2433 H   0  0  0  0  0  0  0  0  0  0  0  0
   17.4166   30.0544    3.7027 H   0  0  0  0  0  0  0  0  0  0  0  0
   16.0356   29.4882    3.8516 H   0  0  0  0  0  0  0  0  0  0  0  0
   16.8953   27.0089    2.3976 H   0  0  0  0  0  0  0  0  0  0  0  0
   15.5120   26.4464    2.5391 H   0  0  0  0  0  0  0  0  0  0  0  0
   14.6585   28.9157    4.0133 H   0  0  0  0  0  0  0  0  0  0  0  0
   14.1354   25.8732    2.7022 H   0  0  0  0  0  0  0  0  0  0  0  0
   13.2747   28.3538    4.1534 H   0  0  0  0  0  0  0  0  0  0  0  0
   12.7557   25.3049    2.8554 H   0  0  0  0  0  0  0  0  0  0  0  0
   11.8940   27.7870    4.3033 H   0  0  0  0  0  0  0  0  0  0  0  0
    9.9085   26.2346    2.6771 H   0  0  0  0  0  0  0  0  0  0  0  0
   11.6369   24.8983    5.9902 H   0  0  0  0  0  0  0  0  0  0  0  0
    8.7899   25.8278    5.8127 H   0  0  0  0  0  0  0  0  0  0  0  0
    9.6510   23.3463    4.3632 H   0  0  0  0  0  0  0  0  0  0  0  0
    7.7566   25.3605    5.9065 H   0  0  0  0  0  0  0  0  0  0  0  0
    8.2707   22.7790    4.5143 H   0  0  0  0  0  0  0  0  0  0  0  0
    7.1239   22.3285    4.6515 H   0  0  0  0  0  0  0  0  0  0  0  0
    6.3735   21.7034    4.5828 H   0  0  0  0  0  0  0  0  0  0  0  0
    4.5300   21.2620    4.9364 H   0  0  0  0  0  0  0  0  0  0  0  0
    3.2224   22.0779    5.7263 H   0  0  0  0  0  0  0  0  0  0  0  0
    2.9877   23.1243    6.2977 H   0  0  0  0  0  0  0  0  0  0  0  0
    0.9057   21.6744    6.2429 H   0  0  0  0  0  0  0  0  0  0  0  0
    2.3441   22.3313    6.3011 H   0  0  0  0  0  0  0  0  0  0  0  0
    0.3918   23.3550    6.9431 H   0  0  0  0  0  0  0  0  0  0  0  0
    0.1479   25.5228    8.3122 H   0  0  0  0  0  0  0  0  0  0  0  0
    0.5673   24.1846    7.5450 H   0  0  0  0  0  0  0  0  0  0  0  0
    0.2293   26.3563    8.6853 H   0  0  0  0  0  0  0  0  0  0  0  0
    2.3601   28.8432    9.2296 H   0  0  0  0  0  0  0  0  0  0  0  0
    4.6305   28.8173    8.4971 H   0  0  0  0  0  0  0  0  0  0  0  0
    4.9902   29.9749    9.0167 H   0  0  0  0  0  0  0  0  0  0  0  0
    4.3382   32.8881   10.5459 H   0  0  0  0  0  0  0  0  0  0  0  0
    2.5386   31.7703   10.4355 H   0  0  0  0  0  0  0  0  0  0  0  0
    4.8199   31.4969    9.8090 H   0  0  0  0  0  0  0  0  0  0  0  0
    2.2926   31.2031   10.3000 H   0  0  0  0  0  0  0  0  0  0  0  0
    1.8498   29.6176    9.6823 H   0  0  0  0  0  0  0  0  0  0  0  0
    0.3868   31.8813   11.1205 H   0  0  0  0  0  0  0  0  0  0  0  0
   -0.2680   29.5396   10.2050 H   0  0  0  0  0  0  0  0  0  0  0  0
    4.4381   28.8366    8.5809 H   0  0  0  0  0  0  0  0  0  0  0  0
    5.7590   29.1756    8.3384 H   0  0  0  0  0  0  0  0  0  0  0  0
    7.1023   27.6865    7.2162 H   0  0  0  0  0  0  0  0  0  0  0  0
    7.3477   26.8479    6.7407 H   0  0  0  0  0  0  0  0  0  0  0  0
    7.4387   25.1388    5.8969 H   0  0  0  0  0  0  0  0  0  0  0  0
    7.3098   25.8417    6.2719 H   0  0  0  0  0  0  0  0  0  0  0  0
  1  2  1  0
  2  3  1  0
  3  4  1  0
  4  5  1  0
  5  6  1  0
  6  7  2  3
  7  8  1  0
  8  9  1  0
  9 10  1  0
 10 11  1  0
 11 12  1  0
 12 13  1  0
 13 14  1  0
 14 15  1  1
 14 16  1  0
 16 17  1  0
 17 18  1  0
 18 19  1  0
 19 20  1  6
 20 21  1  0
 21 22  1  0
 21 23  1  0
 23 24  1  0
 19 25  1  0
 25 26  1  0
 27 26  1  1
 27 28  1  0
 28 29  1  0
 29 30  1  6
 30 10  1  0
 14 12  1  0
 19 17  1  0
 27 25  1  0
 29 13  1  0
 29 27  1  0
  1 31  1  0
  1 32  1  0
  1 33  1  0
  2 34  1  0
  2 35  1  0
  3 36  1  0
  3 37  1  0
  4 38  1  0
  4 39  1  0
  5 40  1  0
  5 41  1  0
  6 42  1  0
  7 43  1  0
  8 44  1  0
  8 45  1  0
  9 46  1  0
  9 47  1  0
 10 48  1  6
 11 49  1  0
 11 50  1  0
 12 51  1  1
 13 52  1  1
 15 53  1  0
 15 54  1  0
 15 55  1  0
 16 56  1  0
 16 57  1  0
 17 58  1  6
 20 59  1  0
 20 60  1  0
 21 61  1  6
 22 62  1  0
 22 63  1  0
 22 64  1  0
 23 65  1  0
 23 66  1  0
 24 67  1  0
 24 68  1  0
 25 69  1  6
 26 70  1  0
 26 71  1  0
 28 72  1  0
 28 73  1  0
 30 74  1  0
M  END
