
     RDKit          2D

 30 30  0  0  0  0  0  0  0  0999 V2000
   17.5958  -20.7411  -12.4620 C   0  0  0  0  0  0  0  0  0  0  0  0
   17.2165  -19.5859  -11.5835 C   0  0  0  0  0  0  0  0  0  0  0  0
   16.8167  -20.5420  -10.4991 N   0  0  0  0  0  0  0  0  0  0  0  0
   16.9705  -22.0195  -10.7076 O   0  0  0  0  0  0  0  0  0  0  0  0
   16.8371  -18.4308  -10.7050 C   0  0  0  0  0  0  0  0  0  0  0  0
   16.4578  -17.2757   -9.8264 C   0  0  0  0  0  0  0  0  0  0  0  0
   16.0784  -16.1206   -8.9479 F   0  0  0  0  0  0  0  0  0  0  0  0
   16.4325  -19.3871   -9.6224 C   0  0  0  0  0  0  0  0  0  0  0  0
   16.0279  -20.3433   -8.5399 C   0  0  0  0  0  0  0  0  0  0  0  0
   15.6233  -21.2995   -7.4573 C   0  0  0  0  0  0  0  0  0  0  0  0
   15.8164  -20.4264   -6.2530 C   0  0  0  0  0  0  0  0  0  0  0  0
   15.3346  -21.8372   -6.0871 C   0  0  0  0  0  0  0  0  0  0  0  0
   14.9007  -23.2291   -6.4396 F   0  0  0  0  0  0  0  0  0  0  0  0
   17.9752  -21.8961  -13.3406 H   0  0  0  0  0  0  0  0  0  0  0  0
   17.9961  -19.7849  -13.5463 H   0  0  0  0  0  0  0  0  0  0  0  0
   17.2992  -21.9483  -11.6226 H   0  0  0  0  0  0  0  0  0  0  0  0
   17.6163  -18.6298  -12.6680 H   0  0  0  0  0  0  0  0  0  0  0  0
   16.3168  -20.7216   -9.2580 H   0  0  0  0  0  0  0  0  0  0  0  0
   16.5707  -22.9756   -9.6231 H   0  0  0  0  0  0  0  0  0  0  0  0
   17.2417  -17.4746  -11.7876 H   0  0  0  0  0  0  0  0  0  0  0  0
   17.4991  -16.4267  -10.4932 H   0  0  0  0  0  0  0  0  0  0  0  0
   15.8201  -17.6903   -9.3724 H   0  0  0  0  0  0  0  0  0  0  0  0
   16.5597  -18.8373   -8.9397 H   0  0  0  0  0  0  0  0  0  0  0  0
   16.2430  -20.0543  -10.0153 H   0  0  0  0  0  0  0  0  0  0  0  0
   16.3426  -19.1794   -7.6475 H   0  0  0  0  0  0  0  0  0  0  0  0
   15.7606  -21.3985   -9.5719 H   0  0  0  0  0  0  0  0  0  0  0  0
   15.2897  -22.5048   -8.2857 H   0  0  0  0  0  0  0  0  0  0  0  0
   15.8457  -19.9907   -4.8180 H   0  0  0  0  0  0  0  0  0  0  0  0
   16.2983  -19.0953   -6.7490 H   0  0  0  0  0  0  0  0  0  0  0  0
   15.1965  -21.8915   -4.5945 H   0  0  0  0  0  0  0  0  0  0  0  0
  1  2  1  0
  2  3  1  0
  3  4  1  0
  2  5  1  0
  5  6  1  0
  6  7  1  0
  5  8  1  0
  8  9  1  0
  9 10  1  0
 10 11  1  0
 11 12  1  0
 12 13  1  0
 12 10  1  0
  1 14  1  0
  1 15  1  0
  1 16  1  0
  2 17  1  0
  3 18  1  0
  4 19  1  0
  5 20  1  0
  6 21  1  0
  6 22  1  0
  8 23  1  0
  8 24  1  0
  9 25  1  0
  9 26  1  0
 10 27  1  0
 11 28  1  0
 11 29  1  0
 12 30  1  0
M  END
