
     RDKit          2D

 29 29  0  0  0  0  0  0  0  0999 V2000
   15.2810  -18.8586  -10.8130 C   0  0  0  0  0  0  0  0  0  0  0  0
   15.8248  -19.3486   -9.5038 O   0  0  0  0  0  0  0  0  0  0  0  0
   15.8194  -18.4471   -8.3049 C   0  0  0  0  0  0  0  0  0  0  0  0
   16.4515  -19.5330   -7.4856 O   0  0  0  0  0  0  0  0  0  0  0  0
   15.8139  -17.5458   -7.1059 C   0  0  0  0  0  0  0  0  0  0  0  0
   15.4444  -16.9740   -7.6726 F   0  0  0  0  0  0  0  0  0  0  0  0
   15.8084  -16.6443   -5.9070 C   0  0  0  0  0  0  0  0  0  0  0  0
   15.1801  -15.5570   -6.7273 C   0  0  0  0  0  0  0  0  0  0  0  0
   15.8030  -15.7429   -4.7081 C   0  0  0  0  0  0  0  0  0  0  0  0
   16.4313  -16.8302   -3.8877 C   0  0  0  0  0  0  0  0  0  0  0  0
   16.4368  -17.7316   -5.0867 C   0  0  0  0  0  0  0  0  0  0  0  0
   17.0651  -18.8189   -4.2663 C   0  0  0  0  0  0  0  0  0  0  0  0
   14.7371  -18.3685  -12.1222 H   0  0  0  0  0  0  0  0  0  0  0  0
   15.6006  -20.1825  -11.4414 H   0  0  0  0  0  0  0  0  0  0  0  0
   14.9613  -17.5345  -10.1847 H   0  0  0  0  0  0  0  0  0  0  0  0
   15.1872  -17.3613   -9.1241 H   0  0  0  0  0  0  0  0  0  0  0  0
   16.6691  -20.8922   -8.0817 H   0  0  0  0  0  0  0  0  0  0  0  0
   16.1841  -18.2472   -6.7118 H   0  0  0  0  0  0  0  0  0  0  0  0
   14.5518  -14.4697   -7.5477 H   0  0  0  0  0  0  0  0  0  0  0  0
   15.1311  -14.9507   -6.0835 H   0  0  0  0  0  0  0  0  0  0  0  0
   15.1386  -16.0068   -7.4892 H   0  0  0  0  0  0  0  0  0  0  0  0
   15.4343  -15.0408   -5.1026 H   0  0  0  0  0  0  0  0  0  0  0  0
   15.7975  -14.8415   -3.5091 H   0  0  0  0  0  0  0  0  0  0  0  0
   16.4258  -15.9288   -2.6888 H   0  0  0  0  0  0  0  0  0  0  0  0
   17.0543  -17.7996   -2.9274 H   0  0  0  0  0  0  0  0  0  0  0  0
   16.4852  -18.3381   -5.7303 H   0  0  0  0  0  0  0  0  0  0  0  0
   17.6935  -19.9062   -3.4460 H   0  0  0  0  0  0  0  0  0  0  0  0
   17.0663  -19.7219   -5.4641 H   0  0  0  0  0  0  0  0  0  0  0  0
   17.1406  -18.0552   -2.9775 H   0  0  0  0  0  0  0  0  0  0  0  0
  1  2  1  0
  2  3  1  0
  3  4  1  0
  3  5  1  0
  5  6  1  0
  5  7  1  0
  7  8  1  0
  7  9  1  0
  9 10  1  0
 10 11  1  0
 11 12  1  0
 11  7  1  0
  1 13  1  0
  1 14  1  0
  1 15  1  0
  3 16  1  0
  4 17  1  0
  5 18  1  0
  8 19  1  0
  8 20  1  0
  8 21  1  0
  9 22  1  0
  9 23  1  0
 10 24  1  0
 10 25  1  0
 11 26  1  0
 12 27  1  0
 12 28  1  0
 12 29  1  0
M  END
