
     RDKit          2D

 59 65  0  0  0  0  0  0  0  0999 V2000
   17.6823  -22.9278  -10.6647 C   0  0  0  0  0  0  0  0  0  0  0  0
   18.4527  -21.6411  -10.6975 C   0  0  0  0  0  0  0  0  0  0  0  0
   19.2231  -20.3544  -10.7304 N   0  0  0  0  0  0  0  0  0  0  0  0
   19.5839  -19.6634   -9.4489 P   0  0  0  0  0  0  0  0  0  0  0  0
   19.1744  -20.2589   -8.1345 C   0  0  0  0  0  0  0  0  0  0  0  0
   18.0957  -19.7059   -8.0511 Cl  0  0  0  0  0  0  0  0  0  0  0  0
   18.7648  -20.8545   -6.8201 C   0  0  0  0  0  0  0  0  0  0  0  0
   18.3552  -21.4501   -5.5058 C   0  0  0  0  0  0  0  0  0  0  0  0
   17.9457  -22.0456   -4.1914 C   0  0  0  0  0  0  0  0  0  0  0  0
   17.5361  -22.6412   -2.8771 C   0  0  0  0  0  0  0  0  0  0  0  0
   17.1266  -23.2368   -1.5627 C   0  0  0  0  0  0  0  0  0  0  0  0
   16.7170  -23.8324   -0.2483 N   0  0  0  0  0  0  0  0  0  0  0  0
   16.5127  -22.0385   -4.6347 C   0  0  0  0  0  0  0  0  0  0  0  0
   15.9870  -23.1938   -3.8353 C   0  0  0  0  0  0  0  0  0  0  0  0
   14.5442  -23.5887   -3.9475 C   0  0  0  0  0  0  0  0  0  0  0  0
   15.0699  -22.4335   -4.7469 C   0  0  0  0  0  0  0  0  0  0  0  0
   14.1530  -21.6731   -5.6584 C   0  0  0  0  0  0  0  0  0  0  0  0
   19.6326  -19.7589  -12.0448 C   0  0  0  0  0  0  0  0  0  0  0  0
   20.6460  -18.9049  -11.3420 N   0  0  0  0  0  0  0  0  0  0  0  0
   18.6193  -20.6129  -12.7475 Cl  0  0  0  0  0  0  0  0  0  0  0  0
   20.0422  -19.1633  -13.3591 C   0  0  0  0  0  0  0  0  0  0  0  0
   20.7347  -17.9656  -12.7796 N   0  0  0  0  0  0  0  0  0  0  0  0
   20.6821  -18.1548  -14.2666 C   0  0  0  0  0  0  0  0  0  0  0  0
   20.4706  -18.6048  -15.6818 N   0  0  0  0  0  0  0  0  0  0  0  0
   19.7001  -19.8913  -15.6490 C   0  0  0  0  0  0  0  0  0  0  0  0
   18.9405  -21.1383  -15.3053 C   0  0  0  0  0  0  0  0  0  0  0  0
   19.2053  -20.7931  -16.7408 N   0  0  0  0  0  0  0  0  0  0  0  0
   19.4353  -20.2365  -14.2135 C   0  0  0  0  0  0  0  0  0  0  0  0
   16.9120  -24.2144  -10.6318 H   0  0  0  0  0  0  0  0  0  0  0  0
   17.6521  -22.8713   -9.1660 H   0  0  0  0  0  0  0  0  0  0  0  0
   17.7126  -22.9842  -12.1633 H   0  0  0  0  0  0  0  0  0  0  0  0
   18.3499  -21.7213   -9.4895 H   0  0  0  0  0  0  0  0  0  0  0  0
   18.4861  -21.6994  -12.1960 H   0  0  0  0  0  0  0  0  0  0  0  0
   20.3451  -18.3796   -9.2989 H   0  0  0  0  0  0  0  0  0  0  0  0
   20.4657  -21.0199   -8.0770 H   0  0  0  0  0  0  0  0  0  0  0  0
   20.0571  -21.6138   -6.7615 H   0  0  0  0  0  0  0  0  0  0  0  0
   17.4725  -20.0952   -6.8788 H   0  0  0  0  0  0  0  0  0  0  0  0
   16.9171  -21.1696   -5.8268 H   0  0  0  0  0  0  0  0  0  0  0  0
   19.4322  -21.6001   -5.3903 H   0  0  0  0  0  0  0  0  0  0  0  0
   19.3786  -22.0528   -3.7481 H   0  0  0  0  0  0  0  0  0  0  0  0
   16.1403  -22.1311   -3.0809 H   0  0  0  0  0  0  0  0  0  0  0  0
   18.2032  -22.9808   -2.6030 H   0  0  0  0  0  0  0  0  0  0  0  0
   18.0027  -24.4250   -1.8281 H   0  0  0  0  0  0  0  0  0  0  0  0
   16.2505  -22.0485   -1.2973 H   0  0  0  0  0  0  0  0  0  0  0  0
   15.7418  -23.1084    0.6319 H   0  0  0  0  0  0  0  0  0  0  0  0
   17.2828  -25.1521    0.1858 H   0  0  0  0  0  0  0  0  0  0  0  0
   16.4032  -21.2183   -5.3496 H   0  0  0  0  0  0  0  0  0  0  0  0
   16.7298  -23.8097   -3.0969 H   0  0  0  0  0  0  0  0  0  0  0  0
   14.5163  -24.7465   -2.9942 H   0  0  0  0  0  0  0  0  0  0  0  0
   13.1113  -23.5816   -4.3908 H   0  0  0  0  0  0  0  0  0  0  0  0
   13.2359  -20.9128   -6.5700 H   0  0  0  0  0  0  0  0  0  0  0  0
   13.0154  -22.5653   -5.2583 H   0  0  0  0  0  0  0  0  0  0  0  0
   15.2904  -20.7809   -6.0586 H   0  0  0  0  0  0  0  0  0  0  0  0
   21.3425  -19.2097  -10.0490 H   0  0  0  0  0  0  0  0  0  0  0  0
   21.3652  -17.5960  -11.4815 H   0  0  0  0  0  0  0  0  0  0  0  0
   21.2397  -17.0479  -11.7059 H   0  0  0  0  0  0  0  0  0  0  0  0
   21.4416  -16.9079  -14.6104 H   0  0  0  0  0  0  0  0  0  0  0  0
   20.9462  -17.8931  -16.9136 H   0  0  0  0  0  0  0  0  0  0  0  0
   18.1810  -22.3853  -14.9615 H   0  0  0  0  0  0  0  0  0  0  0  0
  1  2  1  0
  2  3  1  0
  3  4  1  0
  4  5  1  0
  5  6  1  0
  5  7  1  0
  7  8  1  0
  8  9  1  0
  9 10  1  0
 10 11  1  0
 11 12  1  0
  9 13  1  0
 13 14  1  0
 14 15  1  0
 15 16  1  0
 16 17  1  0
  3 18  1  0
 18 19  1  0
 18 20  1  0
 18 21  1  0
 21 22  1  0
 22 23  1  0
 23 24  1  0
 24 25  1  0
 25 26  1  0
 26 27  1  0
 27 28  1  0
 16 13  1  0
 23 21  1  0
 27 25  1  0
 16 14  1  0
 28 21  1  0
 28 25  1  0
 28 26  1  0
  1 29  1  0
  1 30  1  0
  1 31  1  0
  2 32  1  0
  2 33  1  0
  4 34  1  0
  5 35  1  0
  7 36  1  0
  7 37  1  0
  8 38  1  0
  8 39  1  0
  9 40  1  0
 10 41  1  0
 10 42  1  0
 11 43  1  0
 11 44  1  0
 12 45  1  0
 12 46  1  0
 13 47  1  0
 14 48  1  0
 15 49  1  0
 15 50  1  0
 17 51  1  0
 17 52  1  0
 17 53  1  0
 19 54  1  0
 19 55  1  0
 22 56  1  0
 23 57  1  0
 24 58  1  0
 26 59  1  0
M  END
