
     RDKit          2D

115124  0  0  0  0  0  0  0  0999 V2000
   -1.5678   20.9000    7.9302 C   0  0  0  0  0  0  0  0  0  0  0  0
   -2.8811   21.4750    7.4892 C   0  0  0  0  0  0  0  0  0  0  0  0
   -4.2824   20.9526    7.3735 C   0  0  0  0  0  0  0  0  0  0  0  0
   -3.8264   19.6170    7.8816 C   0  0  0  0  0  0  0  0  0  0  0  0
   -3.3703   18.2814    8.3897 C   0  0  0  0  0  0  0  0  0  0  0  0
   -4.7385   22.2881    6.8655 C   0  0  0  0  0  0  0  0  0  0  0  0
   -3.3372   22.8106    6.9811 C   0  0  0  0  0  0  0  0  0  0  0  0
   -3.7931   24.1462    6.4730 C   0  0  0  0  0  0  0  0  0  0  0  0
   -4.2491   25.4819    5.9649 C   0  0  0  0  0  0  0  0  0  0  0  0
   -2.3946   24.6729    6.6020 C   0  0  0  0  0  0  0  0  0  0  0  0
   -0.9960   25.1994    6.7310 C   0  0  0  0  0  0  0  0  0  0  0  0
   -1.0825   23.7637    7.1569 C   0  0  0  0  0  0  0  0  0  0  0  0
   -0.5232   22.4712    7.6732 C   0  0  0  0  0  0  0  0  0  0  0  0
    0.5711   21.5778    8.1777 C   0  0  0  0  0  0  0  0  0  0  0  0
    1.6439   21.1850    8.5230 C   0  0  0  0  0  0  0  0  0  0  0  0
    0.9153   23.3534    7.7006 C   0  0  0  0  0  0  0  0  0  0  0  0
    4.1857   20.2453    9.3439 C   0  0  0  0  0  0  0  0  0  0  0  0
    5.4298   19.7887    9.7446 C   0  0  0  0  0  0  0  0  0  0  0  0
    4.7508   21.0201    9.2222 C   0  0  0  0  0  0  0  0  0  0  0  0
    4.6365   22.4791    8.7473 C   0  0  0  0  0  0  0  0  0  0  0  0
    5.3516   23.7736    8.4963 C   0  0  0  0  0  0  0  0  0  0  0  0
    5.4380   25.2093    8.0704 C   0  0  0  0  0  0  0  0  0  0  0  0
    6.5002   26.2632    7.9662 C   0  0  0  0  0  0  0  0  0  0  0  0
    7.8465   26.9202    8.0440 C   0  0  0  0  0  0  0  0  0  0  0  0
    7.6869   25.4862    8.4541 C   0  0  0  0  0  0  0  0  0  0  0  0
    9.0994   25.1689    8.8469 C   0  0  0  0  0  0  0  0  0  0  0  0
    4.8787   26.5018    7.5541 C   0  0  0  0  0  0  0  0  0  0  0  0
    3.7845   27.3952    7.0496 C   0  0  0  0  0  0  0  0  0  0  0  0
    2.3720   27.7125    6.6568 C   0  0  0  0  0  0  0  0  0  0  0  0
    0.9212   27.3908    6.4535 C   0  0  0  0  0  0  0  0  0  0  0  0
   -0.4143   27.9133    6.0134 C   0  0  0  0  0  0  0  0  0  0  0  0
   -0.0385   29.3209    5.6566 C   0  0  0  0  0  0  0  0  0  0  0  0
    0.3372   30.7285    5.2998 C   0  0  0  0  0  0  0  0  0  0  0  0
   -0.2809   26.4940    6.4800 C   0  0  0  0  0  0  0  0  0  0  0  0
    3.4344   21.5822    8.7738 C   0  0  0  0  0  0  0  0  0  0  0  0
    1.9835   21.2605    8.5705 C   0  0  0  0  0  0  0  0  0  0  0  0
    0.9522   20.1779    8.6900 C   0  0  0  0  0  0  0  0  0  0  0  0
   -0.4987   19.8563    8.4867 C   0  0  0  0  0  0  0  0  0  0  0  0
    0.7344   18.7479    9.0867 C   0  0  0  0  0  0  0  0  0  0  0  0
    1.4134   17.5165    9.6091 C   0  0  0  0  0  0  0  0  0  0  0  0
    2.7298   16.9543   10.0576 C   0  0  0  0  0  0  0  0  0  0  0  0
    3.6653   15.9034   10.5777 C   0  0  0  0  0  0  0  0  0  0  0  0
    4.1807   17.2759   10.2609 C   0  0  0  0  0  0  0  0  0  0  0  0
    5.6048   17.0007   10.6431 C   0  0  0  0  0  0  0  0  0  0  0  0
    5.2120   18.3586   10.1413 C   0  0  0  0  0  0  0  0  0  0  0  0
   -1.4900   19.4747    8.3911 H   0  0  0  0  0  0  0  0  0  0  0  0
   -0.4393   21.8848    7.8471 H   0  0  0  0  0  0  0  0  0  0  0  0
   -5.6837   20.4301    7.2579 H   0  0  0  0  0  0  0  0  0  0  0  0
   -5.2289   19.0963    7.7719 H   0  0  0  0  0  0  0  0  0  0  0  0
   -2.3788   19.9709    8.0525 H   0  0  0  0  0  0  0  0  0  0  0  0
   -2.9143   16.9457    8.8978 H   0  0  0  0  0  0  0  0  0  0  0  0
   -4.7748   17.7639    8.2899 H   0  0  0  0  0  0  0  0  0  0  0  0
   -1.9660   18.7987    8.4895 H   0  0  0  0  0  0  0  0  0  0  0  0
   -6.1397   21.7658    6.7499 H   0  0  0  0  0  0  0  0  0  0  0  0
   -5.3619   23.5502    6.3471 H   0  0  0  0  0  0  0  0  0  0  0  0
   -4.8072   22.6269    6.7460 H   0  0  0  0  0  0  0  0  0  0  0  0
   -5.2368   23.7864    6.2830 H   0  0  0  0  0  0  0  0  0  0  0  0
   -4.7052   26.8175    5.4568 H   0  0  0  0  0  0  0  0  0  0  0  0
   -5.6532   24.9639    5.8634 H   0  0  0  0  0  0  0  0  0  0  0  0
   -2.9112   26.1588    6.0038 H   0  0  0  0  0  0  0  0  0  0  0  0
   -2.1124   23.2830    7.0905 H   0  0  0  0  0  0  0  0  0  0  0  0
   -2.6767   26.0628    6.1136 H   0  0  0  0  0  0  0  0  0  0  0  0
   -2.0629   26.1233    6.2228 H   0  0  0  0  0  0  0  0  0  0  0  0
   -2.1447   22.7098    7.2611 H   0  0  0  0  0  0  0  0  0  0  0  0
   -2.5275   23.9471    6.7987 H   0  0  0  0  0  0  0  0  0  0  0  0
   -0.8668   21.0576    8.0385 H   0  0  0  0  0  0  0  0  0  0  0  0
   -1.9802   22.1880    7.4567 H   0  0  0  0  0  0  0  0  0  0  0  0
   -0.5573   20.5920    8.2471 H   0  0  0  0  0  0  0  0  0  0  0  0
    2.5979   23.6114    7.9719 H   0  0  0  0  0  0  0  0  0  0  0  0
   -0.0423   24.3849    7.1819 H   0  0  0  0  0  0  0  0  0  0  0  0
    2.0321   24.3520    7.6249 H   0  0  0  0  0  0  0  0  0  0  0  0
   -0.4704   22.7909    7.5853 H   0  0  0  0  0  0  0  0  0  0  0  0
    3.4962   23.2496    8.2712 H   0  0  0  0  0  0  0  0  0  0  0  0
    4.6339   22.3051    8.8006 H   0  0  0  0  0  0  0  0  0  0  0  0
    6.8808   20.1104    9.9479 H   0  0  0  0  0  0  0  0  0  0  0  0
    6.0053   21.8423    9.2298 H   0  0  0  0  0  0  0  0  0  0  0  0
    5.8424   21.7294    9.2307 H   0  0  0  0  0  0  0  0  0  0  0  0
    6.8189   23.9614    8.7444 H   0  0  0  0  0  0  0  0  0  0  0  0
    6.4184   22.8498    9.0045 H   0  0  0  0  0  0  0  0  0  0  0  0
    6.7734   24.6869    8.5106 H   0  0  0  0  0  0  0  0  0  0  0  0
    5.8376   27.5037    7.4445 H   0  0  0  0  0  0  0  0  0  0  0  0
    7.4962   28.2915    7.5470 H   0  0  0  0  0  0  0  0  0  0  0  0
    9.2916   27.2732    8.2364 H   0  0  0  0  0  0  0  0  0  0  0  0
    7.3754   24.0673    8.8278 H   0  0  0  0  0  0  0  0  0  0  0  0
   10.5118   24.8516    9.2397 H   0  0  0  0  0  0  0  0  0  0  0  0
    9.7505   26.3134    8.1282 H   0  0  0  0  0  0  0  0  0  0  0  0
    8.6168   23.9770    9.6191 H   0  0  0  0  0  0  0  0  0  0  0  0
    5.3942   27.8744    7.2373 H   0  0  0  0  0  0  0  0  0  0  0  0
    6.3002   26.9544    7.7108 H   0  0  0  0  0  0  0  0  0  0  0  0
    3.8307   28.8303    6.6156 H   0  0  0  0  0  0  0  0  0  0  0  0
    5.0093   28.2610    7.0375 H   0  0  0  0  0  0  0  0  0  0  0  0
    1.7757   28.9874    6.1382 H   0  0  0  0  0  0  0  0  0  0  0  0
    3.1220   28.9895    6.4185 H   0  0  0  0  0  0  0  0  0  0  0  0
    0.9379   28.8248    6.0137 H   0  0  0  0  0  0  0  0  0  0  0  0
   -1.8802   27.9468    5.6971 H   0  0  0  0  0  0  0  0  0  0  0  0
   -1.4957   29.4290    5.3174 H   0  0  0  0  0  0  0  0  0  0  0  0
   -1.4041   29.7722    5.2304 H   0  0  0  0  0  0  0  0  0  0  0  0
    0.7129   32.1363    4.9429 H   0  0  0  0  0  0  0  0  0  0  0  0
   -1.0854   31.0113    4.9170 H   0  0  0  0  0  0  0  0  0  0  0  0
    1.7597   30.4459    5.6825 H   0  0  0  0  0  0  0  0  0  0  0  0
   -1.6723   26.8773    6.0712 H   0  0  0  0  0  0  0  0  0  0  0  0
    4.4737   22.6577    8.6581 H   0  0  0  0  0  0  0  0  0  0  0  0
    0.5524   21.5078    8.1954 H   0  0  0  0  0  0  0  0  0  0  0  0
   -0.0223   21.1940    8.1725 H   0  0  0  0  0  0  0  0  0  0  0  0
   -1.9093   19.3664    8.3439 H   0  0  0  0  0  0  0  0  0  0  0  0
   -0.4349   18.4283    8.9415 H   0  0  0  0  0  0  0  0  0  0  0  0
   -0.7412   21.2555    8.0036 H   0  0  0  0  0  0  0  0  0  0  0  0
   -0.1612   17.5583    9.2676 H   0  0  0  0  0  0  0  0  0  0  0  0
   -0.7017   18.9736    8.7173 H   0  0  0  0  0  0  0  0  0  0  0  0
    0.3821   16.4338    9.7286 H   0  0  0  0  0  0  0  0  0  0  0  0
    1.8138   15.7790   10.2298 H   0  0  0  0  0  0  0  0  0  0  0  0
    3.9077   14.5042   11.0608 H   0  0  0  0  0  0  0  0  0  0  0  0
    5.4891   15.5652   11.0628 H   0  0  0  0  0  0  0  0  0  0  0  0
    7.0692   17.2240   10.8796 H   0  0  0  0  0  0  0  0  0  0  0  0
    6.6804   18.5322   10.3940 H   0  0  0  0  0  0  0  0  0  0  0  0
  1  2  2  3
  2  3  1  0
  3  4  1  0
  4  5  1  0
  3  6  1  0
  6  7  1  0
  7  8  1  0
  8  9  1  0
  8 10  1  0
 10 11  1  0
 11 12  1  0
 12 13  1  0
 13 14  1  0
 14 15  1  0
 15 16  1  0
 15 17  1  0
 17 18  1  0
 18 19  1  0
 19 20  1  0
 20 21  1  0
 21 22  1  0
 22 23  1  0
 23 24  1  0
 24 25  1  0
 25 26  1  0
 22 27  1  0
 27 28  1  0
 28 29  1  0
 29 30  1  0
 30 31  1  0
 31 32  1  0
 32 33  1  0
 31 34  1  0
 20 35  1  0
 35 36  1  0
 36 37  1  0
 37 38  1  0
 37 39  1  0
 39 40  1  0
 40 41  1  0
 41 42  1  0
 42 43  1  0
 43 44  1  0
 44 45  1  0
  7  2  1  0
 34 11  1  0
 42 40  1  0
 45 43  1  0
 36 14  1  0
 43 41  1  0
 45 18  1  0
 35 19  1  0
 25 23  1  0
 34 30  1  0
  1 46  1  0
  1 47  1  0
  3 48  1  0
  4 49  1  0
  4 50  1  0
  5 51  1  0
  5 52  1  0
  5 53  1  0
  6 54  1  0
  6 55  1  0
  7 56  1  0
  8 57  1  0
  9 58  1  0
  9 59  1  0
  9 60  1  0
 10 61  1  0
 10 62  1  0
 11 63  1  0
 12 64  1  0
 12 65  1  0
 13 66  1  0
 13 67  1  0
 14 68  1  0
 15 69  1  0
 16 70  1  0
 16 71  1  0
 16 72  1  0
 17 73  1  0
 17 74  1  0
 18 75  1  0
 19 76  1  0
 20 77  1  0
 21 78  1  0
 21 79  1  0
 22 80  1  0
 23 81  1  0
 24 82  1  0
 24 83  1  0
 25 84  1  0
 26 85  1  0
 26 86  1  0
 26 87  1  0
 27 88  1  0
 27 89  1  0
 28 90  1  0
 28 91  1  0
 29 92  1  0
 29 93  1  0
 30 94  1  0
 31 95  1  0
 32 96  1  0
 32 97  1  0
 33 98  1  0
 33 99  1  0
 33100  1  0
 34101  1  0
 35102  1  0
 36103  1  0
 37104  1  0
 38105  1  0
 38106  1  0
 38107  1  0
 39108  1  0
 39109  1  0
 40110  1  0
 41111  1  0
 42112  1  0
 44113  1  0
 44114  1  0
 45115  1  0
M  END
