
     RDKit          2D

 61 64  0  0  0  0  0  0  0  0999 V2000
   14.0538  -26.0860   -7.5833 C   0  0  0  0  0  0  0  0  0  0  0  0
   14.1349  -25.2230   -6.3592 C   0  0  0  0  0  0  0  0  0  0  0  0
   14.2162  -24.3599   -5.1351 C   0  0  0  0  0  0  0  0  0  0  0  0
   15.5210  -23.6659   -5.3918 N   0  0  0  0  0  0  0  0  0  0  0  0
   16.7248  -23.4420   -6.2583 C   0  0  0  0  0  0  0  0  0  0  0  0
   17.9286  -23.2181   -7.1248 C   0  0  0  0  0  0  0  0  0  0  0  0
   17.4236  -22.1004   -7.9884 C   0  0  0  0  0  0  0  0  0  0  0  0
   16.9187  -20.9828   -8.8520 C   0  0  0  0  0  0  0  0  0  0  0  0
   16.4137  -19.8651   -9.7156 C   0  0  0  0  0  0  0  0  0  0  0  0
   15.6095  -21.0089   -8.1204 O   0  0  0  0  0  0  0  0  0  0  0  0
   18.2279  -20.9566   -9.5836 C   0  0  0  0  0  0  0  0  0  0  0  0
   19.5371  -20.9304  -10.3153 C   0  0  0  0  0  0  0  0  0  0  0  0
   20.8463  -20.9042  -11.0469 C   0  0  0  0  0  0  0  0  0  0  0  0
   19.0316  -19.8138  -11.1800 C   0  0  0  0  0  0  0  0  0  0  0  0
   18.2643  -18.7283  -11.8748 C   0  0  0  0  0  0  0  0  0  0  0  0
   19.1480  -18.1421  -12.9357 C   0  0  0  0  0  0  0  0  0  0  0  0
   20.4614  -18.8654  -12.8964 C   0  0  0  0  0  0  0  0  0  0  0  0
   20.3895  -19.8986  -11.8113 C   0  0  0  0  0  0  0  0  0  0  0  0
   21.7939  -20.2131  -12.2344 C   0  0  0  0  0  0  0  0  0  0  0  0
   19.3078  -23.3823   -7.6913 C   0  0  0  0  0  0  0  0  0  0  0  0
   18.8517  -24.2580   -6.5620 O   0  0  0  0  0  0  0  0  0  0  0  0
   14.7408  -23.3599   -4.1478 C   0  0  0  0  0  0  0  0  0  0  0  0
   13.9606  -23.0538   -2.9038 C   0  0  0  0  0  0  0  0  0  0  0  0
   15.2654  -22.3599   -3.1605 C   0  0  0  0  0  0  0  0  0  0  0  0
   13.9726  -26.9491   -8.8075 H   0  0  0  0  0  0  0  0  0  0  0  0
   12.7420  -26.6369   -7.1081 H   0  0  0  0  0  0  0  0  0  0  0  0
   15.3655  -25.5352   -8.0587 H   0  0  0  0  0  0  0  0  0  0  0  0
   15.4242  -24.7772   -6.9831 H   0  0  0  0  0  0  0  0  0  0  0  0
   12.8261  -25.7781   -5.8810 H   0  0  0  0  0  0  0  0  0  0  0  0
   12.9397  -24.7540   -4.4533 H   0  0  0  0  0  0  0  0  0  0  0  0
   17.5901  -24.5040   -5.6472 H   0  0  0  0  0  0  0  0  0  0  0  0
   16.0240  -22.5818   -6.7532 H   0  0  0  0  0  0  0  0  0  0  0  0
   18.2820  -22.0843   -8.4696 H   0  0  0  0  0  0  0  0  0  0  0  0
   16.3220  -22.0097   -7.4841 H   0  0  0  0  0  0  0  0  0  0  0  0
   15.9087  -18.7474  -10.5792 H   0  0  0  0  0  0  0  0  0  0  0  0
   17.1452  -19.7684  -10.2057 H   0  0  0  0  0  0  0  0  0  0  0  0
   15.0519  -19.7564   -9.0963 H   0  0  0  0  0  0  0  0  0  0  0  0
   14.4181  -20.1325   -8.3700 H   0  0  0  0  0  0  0  0  0  0  0  0
   18.0269  -20.2983  -10.1411 H   0  0  0  0  0  0  0  0  0  0  0  0
   18.7564  -21.6654   -9.1514 H   0  0  0  0  0  0  0  0  0  0  0  0
   20.0426  -22.0470   -9.4506 H   0  0  0  0  0  0  0  0  0  0  0  0
   22.2073  -21.0144  -11.6677 H   0  0  0  0  0  0  0  0  0  0  0  0
   21.2800  -21.6296  -10.5428 H   0  0  0  0  0  0  0  0  0  0  0  0
   21.0706  -21.6338  -10.4257 H   0  0  0  0  0  0  0  0  0  0  0  0
   20.4377  -20.1656  -11.5661 H   0  0  0  0  0  0  0  0  0  0  0  0
   17.1723  -19.1039  -10.9174 H   0  0  0  0  0  0  0  0  0  0  0  0
   17.2686  -17.7213  -12.3695 H   0  0  0  0  0  0  0  0  0  0  0  0
   17.9676  -17.2577  -13.2086 H   0  0  0  0  0  0  0  0  0  0  0  0
   19.7850  -17.3711  -14.0536 H   0  0  0  0  0  0  0  0  0  0  0  0
   20.8238  -17.9432  -14.0226 H   0  0  0  0  0  0  0  0  0  0  0  0
   21.8670  -19.2721  -13.2267 H   0  0  0  0  0  0  0  0  0  0  0  0
   20.9407  -21.0134  -10.9726 H   0  0  0  0  0  0  0  0  0  0  0  0
   23.1982  -20.5275  -12.6575 H   0  0  0  0  0  0  0  0  0  0  0  0
   22.0412  -21.3126  -11.2445 H   0  0  0  0  0  0  0  0  0  0  0  0
   21.8890  -19.1902  -13.3274 H   0  0  0  0  0  0  0  0  0  0  0  0
   19.6225  -22.4388   -8.8141 H   0  0  0  0  0  0  0  0  0  0  0  0
   20.6959  -23.9149   -7.8896 H   0  0  0  0  0  0  0  0  0  0  0  0
   12.7850  -23.9638   -3.1032 H   0  0  0  0  0  0  0  0  0  0  0  0
   13.5887  -22.4317   -1.5905 H   0  0  0  0  0  0  0  0  0  0  0  0
   15.3467  -21.4968   -1.9364 H   0  0  0  0  0  0  0  0  0  0  0  0
   16.5420  -21.9657   -3.8424 H   0  0  0  0  0  0  0  0  0  0  0  0
  1  2  1  0
  2  3  1  0
  3  4  1  0
  4  5  1  0
  5  6  1  0
  6  7  1  0
  7  8  1  0
  8  9  1  0
  8 10  1  0
  8 11  1  0
 11 12  1  0
 12 13  1  0
 12 14  1  0
 14 15  1  0
 15 16  1  0
 16 17  1  0
 17 18  1  0
 18 19  1  0
  6 20  1  0
 20 21  1  0
  4 22  1  0
 22 23  1  0
 23 24  1  0
 22  3  1  0
 21  6  1  0
 24 22  1  0
 18 14  1  0
  1 25  1  0
  1 26  1  0
  1 27  1  0
  2 28  1  0
  2 29  1  0
  3 30  1  0
  5 31  1  0
  5 32  1  0
  7 33  1  0
  7 34  1  0
  9 35  1  0
  9 36  1  0
  9 37  1  0
 10 38  1  0
 11 39  1  0
 11 40  1  0
 12 41  1  0
 13 42  1  0
 13 43  1  0
 13 44  1  0
 14 45  1  0
 15 46  1  0
 15 47  1  0
 16 48  1  0
 16 49  1  0
 17 50  1  0
 17 51  1  0
 18 52  1  0
 19 53  1  0
 19 54  1  0
 19 55  1  0
 20 56  1  0
 20 57  1  0
 23 58  1  0
 23 59  1  0
 24 60  1  0
 24 61  1  0
M  END
