
     RDKit          2D

 51 54  0  0  0  0  0  0  0  0999 V2000
   -1.7981   28.2470    3.8710 C   0  0  0  0  0  0  0  0  0  0  0  0
   -2.7839   27.2684    4.4371 C   0  0  0  0  0  0  0  0  0  0  0  0
   -3.7696   26.2898    5.0031 C   0  0  0  0  0  0  0  0  0  0  0  0
   -4.3566   27.3747    5.8566 C   0  0  0  0  0  0  0  0  0  0  0  0
   -4.9168   25.9847    5.9201 C   0  0  0  0  0  0  0  0  0  0  0  0
   -5.4771   24.5947    5.9836 C   0  0  0  0  0  0  0  0  0  0  0  0
   -4.8901   23.5098    5.1302 C   0  0  0  0  0  0  0  0  0  0  0  0
   -3.7429   23.8149    4.2132 C   0  0  0  0  0  0  0  0  0  0  0  0
   -3.1827   25.2048    4.1497 C   0  0  0  0  0  0  0  0  0  0  0  0
   -2.3138   26.3571    3.7404 C   0  0  0  0  0  0  0  0  0  0  0  0
   -3.0611   27.2548    4.6813 As  0  0  0  0  0  3  0  0  0  0  0  0
   -2.1923   28.4070    4.2721 C   0  0  0  0  0  0  0  0  0  0  0  0
   -1.3234   29.5592    3.8628 C   0  0  0  0  0  0  0  0  0  0  0  0
   -1.5340   30.9121    4.4755 O   0  0  0  0  0  0  0  0  0  0  0  0
   -0.2439   29.3585    2.8408 O   0  0  0  0  0  0  0  0  0  0  0  0
   -1.4449   27.5092    3.3311 C   0  0  0  0  0  0  0  0  0  0  0  0
   -0.6975   26.6114    2.3902 C   0  0  0  0  0  0  0  0  0  0  0  0
    0.0497   25.7136    1.4493 C   0  0  0  0  0  0  0  0  0  0  0  0
    1.1569   26.3621    0.6722 C   0  0  0  0  0  0  0  0  0  0  0  0
    2.0788   25.7431   -0.3362 C   0  0  0  0  0  0  0  0  0  0  0  0
    2.1213   24.3228   -0.8167 C   0  0  0  0  0  0  0  0  0  0  0  0
    1.2525   23.1707   -0.4074 C   0  0  0  0  0  0  0  0  0  0  0  0
    0.1264   23.1542    0.5834 C   0  0  0  0  0  0  0  0  0  0  0  0
   -0.4088   24.2859    1.4097 C   0  0  0  0  0  0  0  0  0  0  0  0
   -0.7481   29.0862    3.2051 H   0  0  0  0  0  0  0  0  0  0  0  0
   -2.2605   29.4433    4.6490 H   0  0  0  0  0  0  0  0  0  0  0  0
   -0.9900   27.4312    2.9059 H   0  0  0  0  0  0  0  0  0  0  0  0
   -1.9743   26.4520    3.4737 H   0  0  0  0  0  0  0  0  0  0  0  0
   -3.2479   28.4651    5.2133 H   0  0  0  0  0  0  0  0  0  0  0  0
   -3.5856   28.6278    5.5648 H   0  0  0  0  0  0  0  0  0  0  0  0
   -5.2454   28.0594    6.8522 H   0  0  0  0  0  0  0  0  0  0  0  0
   -3.8099   25.8842    4.9130 H   0  0  0  0  0  0  0  0  0  0  0  0
   -6.3460   23.4425    6.3929 H   0  0  0  0  0  0  0  0  0  0  0  0
   -6.3658   25.2795    6.9792 H   0  0  0  0  0  0  0  0  0  0  0  0
   -5.4503   22.1197    5.1936 H   0  0  0  0  0  0  0  0  0  0  0  0
   -3.1559   22.7299    3.3597 H   0  0  0  0  0  0  0  0  0  0  0  0
   -2.2939   24.5201    3.1541 H   0  0  0  0  0  0  0  0  0  0  0  0
   -3.0611   27.2548    4.6813 H   0  0  0  0  0  0  0  0  0  0  0  0
   -4.1493   27.4311    5.6987 H   0  0  0  0  0  0  0  0  0  0  0  0
   -3.0399   29.1577    5.2559 H   0  0  0  0  0  0  0  0  0  0  0  0
    0.6250   30.5107    2.4315 H   0  0  0  0  0  0  0  0  0  0  0  0
   -0.3659   28.2630    2.6117 H   0  0  0  0  0  0  0  0  0  0  0  0
   -1.6512   25.5773    2.9109 H   0  0  0  0  0  0  0  0  0  0  0  0
    0.1715   27.7635    1.9810 H   0  0  0  0  0  0  0  0  0  0  0  0
    3.0922   26.6666   -0.9446 H   0  0  0  0  0  0  0  0  0  0  0  0
    3.1717   24.0138   -1.8420 H   0  0  0  0  0  0  0  0  0  0  0  0
    1.5488   21.8618   -1.0776 H   0  0  0  0  0  0  0  0  0  0  0  0
    0.1690   21.7339    0.1030 H   0  0  0  0  0  0  0  0  0  0  0  0
   -0.9362   22.3510    1.2729 H   0  0  0  0  0  0  0  0  0  0  0  0
   -1.3623   23.2518    1.9306 H   0  0  0  0  0  0  0  0  0  0  0  0
   -1.4069   24.7390    2.4338 H   0  0  0  0  0  0  0  0  0  0  0  0
  1  2  1  0
  2  3  1  0
  3  4  1  0
  4  5  1  0
  5  6  1  0
  6  7  1  0
  7  8  2  0
  8  9  1  0
  9 10  1  0
 10 11  1  0
 11 12  1  0
 12 13  1  0
 13 14  2  0
 13 15  1  0
 12 16  1  0
 16 17  1  0
 17 18  1  0
 18 19  2  0
 19 20  2  0
 20 21  1  0
 21 22  2  0
 22 23  1  0
 23 24  1  0
  5  3  1  0
 16 10  1  0
 24 18  1  0
  9  3  1  0
  1 25  1  0
  1 26  1  0
  1 27  1  0
  2 28  1  0
  2 29  1  0
  4 30  1  0
  4 31  1  0
  5 32  1  0
  6 33  1  0
  6 34  1  0
  7 35  1  0
  8 36  1  0
  9 37  1  0
 10 38  1  0
 11 39  1  0
 12 40  1  0
 15 41  1  0
 16 42  1  0
 17 43  1  0
 17 44  1  0
 20 45  1  0
 21 46  1  0
 22 47  1  0
 23 48  1  0
 23 49  1  0
 24 50  1  0
 24 51  1  0
M  END
