
     RDKit          2D

 34 39  0  0  0  0  0  0  0  0999 V2000
   -5.2008   27.2381    5.9881 C   0  0  0  0  0  0  0  0  0  0  0  0
   -4.8652   26.4204    4.7762 C   0  0  0  0  0  0  0  0  0  0  0  0
   -3.5372   26.2505    5.4528 C   0  0  0  0  0  0  0  0  0  0  0  0
   -2.3375   26.2590    6.3530 C   0  0  0  0  0  0  0  0  0  0  0  0
   -1.1377   26.2676    7.2533 C   0  0  0  0  0  0  0  0  0  0  0  0
   -0.2644   26.5687    8.4351 C   0  0  0  0  0  0  0  0  0  0  0  0
   -1.6609   27.1131    8.3764 C   0  0  0  0  0  0  0  0  0  0  0  0
   -2.6732   25.3990    4.5705 C   0  0  0  0  0  0  0  0  0  0  0  0
   -1.5960   24.5866    3.9151 C   0  0  0  0  0  0  0  0  0  0  0  0
   -0.5188   23.7740    3.2596 C   0  0  0  0  0  0  0  0  0  0  0  0
   -0.2675   24.4178    4.5910 C   0  0  0  0  0  0  0  0  0  0  0  0
   -1.8473   23.9428    2.5837 C   0  0  0  0  0  0  0  0  0  0  0  0
   -3.4671   25.0426    3.3488 N   0  0  0  0  0  0  0  0  0  0  0  0
   -4.4862   24.8561    2.2641 C   0  0  0  0  0  0  0  0  0  0  0  0
   -4.8218   25.6738    3.4759 C   0  0  0  0  0  0  0  0  0  0  0  0
   -5.5365   28.0559    7.2000 H   0  0  0  0  0  0  0  0  0  0  0  0
   -6.5729   27.4913    5.4372 H   0  0  0  0  0  0  0  0  0  0  0  0
   -4.4989   27.1576    6.3572 H   0  0  0  0  0  0  0  0  0  0  0  0
   -6.2633   26.7612    4.3531 H   0  0  0  0  0  0  0  0  0  0  0  0
   -3.7784   26.6953    6.0687 H   0  0  0  0  0  0  0  0  0  0  0  0
   -3.2812   26.9398    7.2996 H   0  0  0  0  0  0  0  0  0  0  0  0
   -1.3938   25.5783    5.4065 H   0  0  0  0  0  0  0  0  0  0  0  0
   -0.1979   25.4250    6.4428 H   0  0  0  0  0  0  0  0  0  0  0  0
    0.9787   25.8308    8.0350 H   0  0  0  0  0  0  0  0  0  0  0  0
    0.1773   27.1261    9.7558 H   0  0  0  0  0  0  0  0  0  0  0  0
   -1.7042   27.8596    9.6768 H   0  0  0  0  0  0  0  0  0  0  0  0
   -3.0671   27.4946    8.0200 H   0  0  0  0  0  0  0  0  0  0  0  0
   -1.5426   25.4822    5.5529 H   0  0  0  0  0  0  0  0  0  0  0  0
    0.5583   22.9616    2.6042 H   0  0  0  0  0  0  0  0  0  0  0  0
    0.6445   24.6920    5.7499 H   0  0  0  0  0  0  0  0  0  0  0  0
   -2.7593   23.6686    1.4248 H   0  0  0  0  0  0  0  0  0  0  0  0
   -3.7020   23.9998    1.3144 H   0  0  0  0  0  0  0  0  0  0  0  0
   -5.7776   24.9669    1.5092 H   0  0  0  0  0  0  0  0  0  0  0  0
   -6.2199   26.0147    3.0527 H   0  0  0  0  0  0  0  0  0  0  0  0
  1  2  1  0
  2  3  1  0
  3  4  1  0
  4  5  1  0
  5  6  1  0
  6  7  1  0
  3  8  1  0
  8  9  1  0
  9 10  1  0
 10 11  1  0
 11 12  1  0
  8 13  1  0
 13 14  1  0
 14 15  1  0
 15  2  1  0
  7  5  1  0
 11  9  1  0
 15 13  1  0
 12  9  1  0
 12 10  1  0
  1 16  1  0
  1 17  1  0
  1 18  1  0
  2 19  1  0
  3 20  1  0
  4 21  1  0
  4 22  1  0
  5 23  1  0
  6 24  1  0
  6 25  1  0
  7 26  1  0
  7 27  1  0
  8 28  1  0
 10 29  1  0
 11 30  1  0
 12 31  1  0
 14 32  1  0
 14 33  1  0
 15 34  1  0
M  END
