
     RDKit          2D

 54 59  0  0  0  0  0  0  0  0999 V2000
      -nan      -nan      -nan C   0  0  0  0  0  0  0  0  0  0  0  0
      -nan      -nan      -nan C   0  0  0  0  0  0  0  0  0  0  0  0
   -0.2857   25.4722   -1.5676 C   0  0  0  0  0  0  0  0  0  0  0  0
    0.7605   24.9601   -0.6227 C   0  0  0  0  0  0  0  0  0  0  0  0
    1.5619   25.9229    0.2024 C   0  0  0  0  0  0  0  0  0  0  0  0
    2.1569   24.6258    0.6646 C   0  0  0  0  0  0  0  0  0  0  0  0
    2.7519   23.3287    1.1267 C   0  0  0  0  0  0  0  0  0  0  0  0
    1.6576   23.3286    0.1008 C   0  0  0  0  0  0  0  0  0  0  0  0
    1.9392   21.8635    0.2567 C   0  0  0  0  0  0  0  0  0  0  0  0
    3.0333   21.7071    1.2709 C   0  0  0  0  0  0  0  0  0  0  0  0
    3.8835   20.7050    1.9941 C   0  0  0  0  0  0  0  0  0  0  0  0
    4.8035   21.4541    2.9119 C   0  0  0  0  0  0  0  0  0  0  0  0
    4.5219   22.9191    2.7560 C   0  0  0  0  0  0  0  0  0  0  0  0
    3.4279   23.0755    1.7418 C   0  0  0  0  0  0  0  0  0  0  0  0
    3.2512   24.6259    1.6905 C   0  0  0  0  0  0  0  0  0  0  0  0
    1.3170   27.3979    0.0825 C   0  0  0  0  0  0  0  0  0  0  0  0
    0.2708   27.9101   -0.8624 C   0  0  0  0  0  0  0  0  0  0  0  0
    0.7688   29.2072   -0.2973 O   0  0  0  0  0  0  0  0  0  0  0  0
    0.1739   30.5043   -0.7595 C   0  0  0  0  0  0  0  0  0  0  0  0
   -0.5306   26.9472   -1.6875 C   0  0  0  0  0  0  0  0  0  0  0  0
   -1.1256   28.2444   -2.1497 C   0  0  0  0  0  0  0  0  0  0  0  0
   -1.5386   26.4349   -2.6731 C   0  0  0  0  0  0  0  0  0  0  0  0
   -2.1132   26.3517   -3.2193 Cl  0  0  0  0  0  0  0  0  0  0  0  0
      -nan      -nan      -nan H   0  0  0  0  0  0  0  0  0  0  0  0
      -nan      -nan      -nan H   0  0  0  0  0  0  0  0  0  0  0  0
      -nan      -nan      -nan H   0  0  0  0  0  0  0  0  0  0  0  0
      -nan      -nan      -nan H   0  0  0  0  0  0  0  0  0  0  0  0
      -nan      -nan      -nan H   0  0  0  0  0  0  0  0  0  0  0  0
   -0.4204   23.9972   -1.8046 H   0  0  0  0  0  0  0  0  0  0  0  0
    0.2625   23.6629   -1.1878 H   0  0  0  0  0  0  0  0  0  0  0  0
    1.4482   23.7483   -0.0670 H   0  0  0  0  0  0  0  0  0  0  0  0
    2.5699   26.4352    1.1880 H   0  0  0  0  0  0  0  0  0  0  0  0
    3.5518   22.2514    1.7972 H   0  0  0  0  0  0  0  0  0  0  0  0
    0.8567   21.7068   -0.7698 H   0  0  0  0  0  0  0  0  0  0  0  0
    1.8606   20.3768    0.0734 H   0  0  0  0  0  0  0  0  0  0  0  0
    2.6386   20.3387    0.8000 H   0  0  0  0  0  0  0  0  0  0  0  0
    3.2072   19.5744    1.2767 H   0  0  0  0  0  0  0  0  0  0  0  0
    4.5713   19.4933    2.5496 H   0  0  0  0  0  0  0  0  0  0  0  0
    5.2990   20.0858    3.2756 H   0  0  0  0  0  0  0  0  0  0  0  0
    5.8271   21.9171    3.9058 H   0  0  0  0  0  0  0  0  0  0  0  0
    5.6044   23.0758    3.7824 H   0  0  0  0  0  0  0  0  0  0  0  0
    4.6005   24.4058    2.9393 H   0  0  0  0  0  0  0  0  0  0  0  0
    3.9441   24.3594    2.3205 H   0  0  0  0  0  0  0  0  0  0  0  0
    2.4101   27.3980    1.1098 H   0  0  0  0  0  0  0  0  0  0  0  0
    1.4517   28.8729    0.3195 H   0  0  0  0  0  0  0  0  0  0  0  0
   -0.6026   28.8728   -1.6111 H   0  0  0  0  0  0  0  0  0  0  0  0
   -0.4211   31.8014   -1.2217 H   0  0  0  0  0  0  0  0  0  0  0  0
    1.0997   31.2538    0.1521 H   0  0  0  0  0  0  0  0  0  0  0  0
   -0.8176   29.9185   -1.7207 H   0  0  0  0  0  0  0  0  0  0  0  0
   -1.7206   29.5414   -2.6118 H   0  0  0  0  0  0  0  0  0  0  0  0
   -2.1584   27.8317   -3.1562 H   0  0  0  0  0  0  0  0  0  0  0  0
   -0.2889   29.1456   -1.2908 H   0  0  0  0  0  0  0  0  0  0  0  0
   -1.3688   24.9453   -2.6249 H   0  0  0  0  0  0  0  0  0  0  0  0
   -2.0847   27.7694   -3.0865 H   0  0  0  0  0  0  0  0  0  0  0  0
  1  2  1  0
  2  3  1  0
  3  4  1  0
  4  5  1  0
  5  6  1  0
  6  7  1  0
  7  8  1  0
  8  9  1  0
  9 10  1  0
 10 11  1  0
 11 12  1  0
 12 13  1  0
 13 14  1  0
 14 15  1  0
  5 16  1  0
 16 17  1  0
 17 18  1  0
 18 19  1  0
 17 20  1  0
 20 21  1  0
 20 22  1  0
 22 23  1  0
 20  3  1  0
  8  6  1  0
 14 10  1  0
 15  6  1  0
 15  7  1  0
 15  8  1  0
  1 24  1  0
  1 25  1  0
  1 26  1  0
  2 27  1  0
  2 28  1  0
  3 29  1  0
  4 30  1  0
  4 31  1  0
  5 32  1  0
  7 33  1  0
  9 34  1  0
  9 35  1  0
 10 36  1  0
 11 37  1  0
 11 38  1  0
 12 39  1  0
 12 40  1  0
 13 41  1  0
 13 42  1  0
 14 43  1  0
 16 44  1  0
 16 45  1  0
 17 46  1  0
 19 47  1  0
 19 48  1  0
 19 49  1  0
 21 50  1  0
 21 51  1  0
 21 52  1  0
 22 53  1  0
 22 54  1  0
M  END
