
     RDKit          2D

103115  0  0  0  0  0  0  0  0999 V2000
   18.1338  -22.6600  -13.8295 C   0  0  0  0  0  0  0  0  0  0  0  0
   17.6188  -22.3679  -12.4513 C   0  0  0  0  0  0  0  0  0  0  0  0
   17.1039  -22.0757  -11.0732 C   0  0  0  0  0  0  0  0  0  0  0  0
   16.5889  -21.7835   -9.6949 C   0  0  0  0  0  0  0  0  0  0  0  0
   17.4048  -20.5653  -10.0116 C   0  0  0  0  0  0  0  0  0  0  0  0
   17.6462  -19.3541   -9.1603 C   0  0  0  0  0  0  0  0  0  0  0  0
   17.5729  -18.4284   -7.9823 C   0  0  0  0  0  0  0  0  0  0  0  0
   18.1444  -17.0807   -7.6551 C   0  0  0  0  0  0  0  0  0  0  0  0
   19.0261  -16.1004   -8.3705 C   0  0  0  0  0  0  0  0  0  0  0  0
   19.7013  -16.0619   -9.7094 C   0  0  0  0  0  0  0  0  0  0  0  0
   20.5721  -14.9983  -10.3098 N   0  0  0  0  0  0  0  0  0  0  0  0
   20.9901  -15.4576  -11.6752 C   0  0  0  0  0  0  0  0  0  0  0  0
   20.4309  -17.6315  -12.9454 N   0  0  0  0  0  0  0  0  0  0  0  0
   19.7355  -18.9596  -12.9974 C   0  0  0  0  0  0  0  0  0  0  0  0
   19.2692  -20.2870  -13.5174 C   0  0  0  0  0  0  0  0  0  0  0  0
   18.6567  -21.6345  -13.7606 C   0  0  0  0  0  0  0  0  0  0  0  0
   19.0746  -22.0940  -15.1260 C   0  0  0  0  0  0  0  0  0  0  0  0
   19.6456  -22.2798  -16.5006 C   0  0  0  0  0  0  0  0  0  0  0  0
   19.0792  -23.6272  -16.8379 C   0  0  0  0  0  0  0  0  0  0  0  0
   18.5127  -24.9746  -17.1752 C   0  0  0  0  0  0  0  0  0  0  0  0
   17.9462  -26.3220  -17.5125 C   0  0  0  0  0  0  0  0  0  0  0  0
   19.9454  -21.0305  -15.7266 C   0  0  0  0  0  0  0  0  0  0  0  0
   20.0657  -19.9137  -14.7324 C   0  0  0  0  0  0  0  0  0  0  0  0
   18.9142  -19.4224  -11.8307 C   0  0  0  0  0  0  0  0  0  0  0  0
   18.1177  -19.7958  -10.6158 C   0  0  0  0  0  0  0  0  0  0  0  0
   17.2354  -20.7670   -9.8889 C   0  0  0  0  0  0  0  0  0  0  0  0
   18.8494  -18.4872  -10.6597 C   0  0  0  0  0  0  0  0  0  0  0  0
   19.5812  -17.1785  -10.7037 C   0  0  0  0  0  0  0  0  0  0  0  0
   20.3777  -16.8050  -11.9186 N   0  0  0  0  0  0  0  0  0  0  0  0
   19.6460  -18.1137  -11.8747 C   0  0  0  0  0  0  0  0  0  0  0  0
   17.1312  -19.0619   -7.7821 C   0  0  0  0  0  0  0  0  0  0  0  0
   16.2477  -19.9088   -6.9148 C   0  0  0  0  0  0  0  0  0  0  0  0
   15.7251  -19.5546   -5.4523 C   0  0  0  0  0  0  0  0  0  0  0  0
   14.8740  -20.1468   -4.3683 C   0  0  0  0  0  0  0  0  0  0  0  0
   14.0435  -21.3379   -3.9918 C   0  0  0  0  0  0  0  0  0  0  0  0
   13.5510  -22.6728   -4.4665 C   0  0  0  0  0  0  0  0  0  0  0  0
   13.5845  -23.6418   -5.6111 C   0  0  0  0  0  0  0  0  0  0  0  0
   14.1312  -23.8746   -6.9884 C   0  0  0  0  0  0  0  0  0  0  0  0
   14.9824  -23.2824   -8.0723 C   0  0  0  0  0  0  0  0  0  0  0  0
   15.8128  -22.0914   -8.4488 C   0  0  0  0  0  0  0  0  0  0  0  0
   15.6610  -21.2570   -7.2115 C   0  0  0  0  0  0  0  0  0  0  0  0
   14.9988  -21.2651   -5.8656 C   0  0  0  0  0  0  0  0  0  0  0  0
   15.5856  -19.9168   -5.5688 C   0  0  0  0  0  0  0  0  0  0  0  0
   14.0771  -22.3068   -5.1364 C   0  0  0  0  0  0  0  0  0  0  0  0
   18.4595  -23.2619  -15.1643 H   0  0  0  0  0  0  0  0  0  0  0  0
   17.4144  -23.9762  -13.8193 H   0  0  0  0  0  0  0  0  0  0  0  0
   18.9564  -21.4536  -14.1729 H   0  0  0  0  0  0  0  0  0  0  0  0
   18.1917  -21.0197  -12.1280 H   0  0  0  0  0  0  0  0  0  0  0  0
   16.9001  -23.6843  -12.4408 H   0  0  0  0  0  0  0  0  0  0  0  0
   17.8809  -20.8050  -11.2512 H   0  0  0  0  0  0  0  0  0  0  0  0
   16.3843  -23.3917  -11.0630 H   0  0  0  0  0  0  0  0  0  0  0  0
   16.0872  -23.1207  -10.1535 H   0  0  0  0  0  0  0  0  0  0  0  0
   18.2510  -19.9974  -11.1123 H   0  0  0  0  0  0  0  0  0  0  0  0
   17.7630  -21.1186  -11.3590 H   0  0  0  0  0  0  0  0  0  0  0  0
   17.1609  -17.9593   -6.6184 H   0  0  0  0  0  0  0  0  0  0  0  0
   16.6926  -19.4247   -7.2875 H   0  0  0  0  0  0  0  0  0  0  0  0
   17.7393  -16.6007   -6.2930 H   0  0  0  0  0  0  0  0  0  0  0  0
   19.2958  -14.8701   -7.5560 H   0  0  0  0  0  0  0  0  0  0  0  0
   18.9336  -16.3442   -8.4520 H   0  0  0  0  0  0  0  0  0  0  0  0
   20.9572  -13.7027   -9.6591 H   0  0  0  0  0  0  0  0  0  0  0  0
   21.8666  -14.7021  -12.6296 H   0  0  0  0  0  0  0  0  0  0  0  0
   21.2523  -17.1687  -14.1120 H   0  0  0  0  0  0  0  0  0  0  0  0
   20.4619  -18.7935  -14.2993 H   0  0  0  0  0  0  0  0  0  0  0  0
   18.6416  -20.2182  -12.1567 H   0  0  0  0  0  0  0  0  0  0  0  0
   18.1725  -21.2872  -12.3841 H   0  0  0  0  0  0  0  0  0  0  0  0
   18.0670  -22.9828  -14.0511 H   0  0  0  0  0  0  0  0  0  0  0  0
   18.3428  -23.4026  -15.0819 H   0  0  0  0  0  0  0  0  0  0  0  0
   20.4132  -21.9978  -17.7580 H   0  0  0  0  0  0  0  0  0  0  0  0
   19.7656  -23.5821  -18.1709 H   0  0  0  0  0  0  0  0  0  0  0  0
   18.2760  -23.9970  -15.6262 H   0  0  0  0  0  0  0  0  0  0  0  0
   17.8366  -25.0253  -15.8372 H   0  0  0  0  0  0  0  0  0  0  0  0
   19.1888  -24.9239  -18.5132 H   0  0  0  0  0  0  0  0  0  0  0  0
   17.3798  -27.6693  -17.8498 H   0  0  0  0  0  0  0  0  0  0  0  0
   19.0488  -26.5366  -18.5066 H   0  0  0  0  0  0  0  0  0  0  0  0
   16.8437  -26.1073  -16.5184 H   0  0  0  0  0  0  0  0  0  0  0  0
   20.8046  -20.3959  -16.7799 H   0  0  0  0  0  0  0  0  0  0  0  0
   20.9248  -19.2792  -15.7857 H   0  0  0  0  0  0  0  0  0  0  0  0
   20.4647  -18.6118  -14.1032 H   0  0  0  0  0  0  0  0  0  0  0  0
   16.3950  -21.9357   -9.4671 H   0  0  0  0  0  0  0  0  0  0  0  0
   17.4072  -21.5769  -11.1397 H   0  0  0  0  0  0  0  0  0  0  0  0
   17.1707  -19.8319   -8.7179 H   0  0  0  0  0  0  0  0  0  0  0  0
   16.9793  -18.2276   -6.5448 H   0  0  0  0  0  0  0  0  0  0  0  0
   17.8401  -17.7402   -7.7647 H   0  0  0  0  0  0  0  0  0  0  0  0
   15.7996  -18.4787   -4.4098 H   0  0  0  0  0  0  0  0  0  0  0  0
   16.4571  -18.2461   -5.4967 H   0  0  0  0  0  0  0  0  0  0  0  0
   14.3273  -19.9140   -2.9911 H   0  0  0  0  0  0  0  0  0  0  0  0
   15.2733  -18.8449   -3.7395 H   0  0  0  0  0  0  0  0  0  0  0  0
   13.4968  -21.1051   -2.6146 H   0  0  0  0  0  0  0  0  0  0  0  0
   12.7206  -23.8639   -4.0900 H   0  0  0  0  0  0  0  0  0  0  0  0
   13.0042  -22.4401   -3.0892 H   0  0  0  0  0  0  0  0  0  0  0  0
   12.7540  -24.8329   -5.2346 H   0  0  0  0  0  0  0  0  0  0  0  0
   14.0567  -24.9506   -8.0308 H   0  0  0  0  0  0  0  0  0  0  0  0
   13.3008  -25.0656   -6.6118 H   0  0  0  0  0  0  0  0  0  0  0  0
   15.4402  -23.6753   -9.4455 H   0  0  0  0  0  0  0  0  0  0  0  0
   14.5830  -24.5844   -8.7011 H   0  0  0  0  0  0  0  0  0  0  0  0
   15.2394  -23.4391   -8.7723 H   0  0  0  0  0  0  0  0  0  0  0  0
   14.9468  -22.5761   -7.2151 H   0  0  0  0  0  0  0  0  0  0  0  0
   14.2144  -21.5991   -4.6315 H   0  0  0  0  0  0  0  0  0  0  0  0
   14.4971  -22.6023   -6.3241 H   0  0  0  0  0  0  0  0  0  0  0  0
   16.2486  -18.5777   -5.4384 H   0  0  0  0  0  0  0  0  0  0  0  0
   14.8011  -20.2509   -4.3347 H   0  0  0  0  0  0  0  0  0  0  0  0
   14.8090  -20.9983   -5.1809 H   0  0  0  0  0  0  0  0  0  0  0  0
   14.4392  -22.8541   -6.4853 H   0  0  0  0  0  0  0  0  0  0  0  0
  1  2  1  0
  2  3  1  0
  3  4  1  0
  4  5  1  0
  5  6  1  0
  6  7  1  0
  7  8  1  0
  8  9  2  0
  9 10  1  0
 10 11  1  0
 11 12  1  0
 12 13  1  0
 13 14  1  0
 14 15  1  0
 15 16  1  0
 16 17  1  0
 17 18  1  0
 18 19  1  0
 19 20  1  0
 20 21  1  0
 18 22  1  0
 22 23  1  0
 14 24  1  0
 24 25  1  0
 25 26  1  0
 25 27  1  0
 27 28  1  0
 28 29  1  0
 29 30  1  0
  6 31  1  0
 31 32  1  0
 32 33  1  0
 33 34  1  0
 34 35  1  0
 35 36  1  0
 36 37  1  0
 37 38  1  0
 38 39  1  0
 39 40  1  0
 40 41  1  0
 41 42  1  0
 42 43  1  0
 37 44  1  0
 40  4  1  0
 25  6  1  0
 30 27  1  0
 41 32  1  0
 28 10  1  0
 43 32  1  0
 29 12  1  0
 44 35  1  0
 23 15  1  0
 27 24  1  0
 30 28  1  0
 22 17  1  0
 30 24  1  0
  1 45  1  0
  1 46  1  0
  1 47  1  0
  2 48  1  0
  2 49  1  0
  3 50  1  0
  3 51  1  0
  4 52  1  0
  5 53  1  0
  5 54  1  0
  7 55  1  0
  7 56  1  0
  8 57  1  0
  9 58  1  0
 10 59  1  0
 11 60  1  0
 12 61  1  0
 13 62  1  0
 14 63  1  0
 15 64  1  0
 16 65  1  0
 16 66  1  0
 17 67  1  0
 18 68  1  0
 19 69  1  0
 19 70  1  0
 20 71  1  0
 20 72  1  0
 21 73  1  0
 21 74  1  0
 21 75  1  0
 22 76  1  0
 23 77  1  0
 23 78  1  0
 26 79  1  0
 26 80  1  0
 26 81  1  0
 31 82  1  0
 31 83  1  0
 33 84  1  0
 33 85  1  0
 34 86  1  0
 34 87  1  0
 35 88  1  0
 36 89  1  0
 36 90  1  0
 37 91  1  0
 38 92  1  0
 38 93  1  0
 39 94  1  0
 39 95  1  0
 40 96  1  0
 41 97  1  0
 42 98  1  0
 42 99  1  0
 43100  1  0
 43101  1  0
 44102  1  0
 44103  1  0
M  END
