
     RDKit          2D

 44 49  0  0  0  0  0  0  0  0999 V2000
    0.6245   20.1819    3.4378 C   0  0  0  0  0  0  0  0  0  0  0  0
   -0.5303   20.9339    4.0302 C   0  0  0  0  0  0  0  0  0  0  0  0
   -1.7600   21.2188    4.8404 C   0  0  0  0  0  0  0  0  0  0  0  0
   -2.3728   22.5877    4.8175 C   0  0  0  0  0  0  0  0  0  0  0  0
   -1.7559   23.6718    3.9844 C   0  0  0  0  0  0  0  0  0  0  0  0
   -2.9106   24.4239    4.5767 O   0  0  0  0  0  0  0  0  0  0  0  0
   -3.1218   25.8680    4.2307 C   0  0  0  0  0  0  0  0  0  0  0  0
   -1.9653   26.0847    3.3003 C   0  0  0  0  0  0  0  0  0  0  0  0
   -1.0217   26.7769    2.3620 N   0  0  0  0  0  0  0  0  0  0  0  0
   -2.1765   27.5290    2.9543 C   0  0  0  0  0  0  0  0  0  0  0  0
   -2.3876   28.9732    2.6083 C   0  0  0  0  0  0  0  0  0  0  0  0
   -3.3312   28.2810    3.5466 C   0  0  0  0  0  0  0  0  0  0  0  0
   -4.2718   29.4096    3.8497 C   0  0  0  0  0  0  0  0  0  0  0  0
   -4.3515   26.1529    5.0410 C   0  0  0  0  0  0  0  0  0  0  0  0
   -4.9643   27.5218    5.0181 C   0  0  0  0  0  0  0  0  0  0  0  0
   -6.1208   27.3051    5.9486 I   0  0  0  0  0  0  0  0  0  0  0  0
   -3.7346   27.2370    4.2079 C   0  0  0  0  0  0  0  0  0  0  0  0
   -0.5260   23.3870    3.1741 C   0  0  0  0  0  0  0  0  0  0  0  0
    0.7037   23.1021    2.3639 C   0  0  0  0  0  0  0  0  0  0  0  0
    0.0868   22.0180    3.1970 C   0  0  0  0  0  0  0  0  0  0  0  0
    1.7793   19.4299    2.8454 H   0  0  0  0  0  0  0  0  0  0  0  0
    0.2025   18.9490    4.1805 H   0  0  0  0  0  0  0  0  0  0  0  0
    1.1842   21.3141    2.6284 H   0  0  0  0  0  0  0  0  0  0  0  0
   -0.7462   19.5887    4.6575 H   0  0  0  0  0  0  0  0  0  0  0  0
   -1.5489   19.7746    5.1864 H   0  0  0  0  0  0  0  0  0  0  0  0
   -2.9165   21.0021    5.7708 H   0  0  0  0  0  0  0  0  0  0  0  0
   -3.3164   21.8956    5.7558 H   0  0  0  0  0  0  0  0  0  0  0  0
   -3.3133   23.7162    5.1205 H   0  0  0  0  0  0  0  0  0  0  0  0
   -1.5421   24.4224    3.5654 H   0  0  0  0  0  0  0  0  0  0  0  0
   -1.5294   25.3157    3.2454 H   0  0  0  0  0  0  0  0  0  0  0  0
    0.1898   26.7423    1.4782 H   0  0  0  0  0  0  0  0  0  0  0  0
   -1.2312   29.1898    1.6779 H   0  0  0  0  0  0  0  0  0  0  0  0
   -2.8659   30.3881    2.4700 H   0  0  0  0  0  0  0  0  0  0  0  0
   -3.7862   27.8449    4.0347 H   0  0  0  0  0  0  0  0  0  0  0  0
   -5.2123   30.5381    4.1527 H   0  0  0  0  0  0  0  0  0  0  0  0
   -3.6009   30.4418    2.9928 H   0  0  0  0  0  0  0  0  0  0  0  0
   -5.1720   28.6525    4.7804 H   0  0  0  0  0  0  0  0  0  0  0  0
   -4.9686   25.0688    5.8741 H   0  0  0  0  0  0  0  0  0  0  0  0
   -5.3216   28.9595    4.7824 H   0  0  0  0  0  0  0  0  0  0  0  0
   -3.3933   28.5199    3.5095 H   0  0  0  0  0  0  0  0  0  0  0  0
   -0.5236   24.8032    2.6799 H   0  0  0  0  0  0  0  0  0  0  0  0
    0.9197   24.4474    1.7365 H   0  0  0  0  0  0  0  0  0  0  0  0
    1.8586   22.3500    1.7716 H   0  0  0  0  0  0  0  0  0  0  0  0
    1.2178   21.2025    2.6443 H   0  0  0  0  0  0  0  0  0  0  0  0
  1  2  1  0
  2  3  1  0
  3  4  1  0
  4  5  1  0
  5  6  1  0
  6  7  1  0
  7  8  1  0
  8  9  1  0
  9 10  1  0
 10 11  1  0
 11 12  1  0
 12 13  1  0
  7 14  1  0
 14 15  1  0
 15 16  1  0
 15 17  1  0
  5 18  1  0
 18 19  1  0
 19 20  1  0
 20  2  1  0
 17  7  1  0
 20 18  1  0
 10  8  1  0
 17 14  1  0
 12 10  1  0
  1 21  1  0
  1 22  1  0
  1 23  1  0
  2 24  1  0
  3 25  1  0
  3 26  1  0
  4 27  1  0
  4 28  1  0
  5 29  1  0
  8 30  1  0
  9 31  1  0
 11 32  1  0
 11 33  1  0
 12 34  1  0
 13 35  1  0
 13 36  1  0
 13 37  1  0
 14 38  1  0
 15 39  1  0
 17 40  1  0
 18 41  1  0
 19 42  1  0
 19 43  1  0
 20 44  1  0
M  END
