
     RDKit          2D

 39 45  0  0  0  0  0  0  0  0999 V2000
   15.4270  -18.5558  -14.8584 C   0  0  0  0  0  0  0  0  0  0  0  0
   14.9739  -18.9208  -13.4758 C   0  0  0  0  0  0  0  0  0  0  0  0
   15.6521  -19.8813  -12.4285 C   0  0  0  0  0  0  0  0  0  0  0  0
   16.7433  -20.1290  -13.4274 C   0  0  0  0  0  0  0  0  0  0  0  0
   17.8760  -21.0518  -13.0874 C   0  0  0  0  0  0  0  0  0  0  0  0
   17.9174  -21.7269  -11.7485 C   0  0  0  0  0  0  0  0  0  0  0  0
   16.8261  -21.4791  -10.7496 C   0  0  0  0  0  0  0  0  0  0  0  0
   15.7349  -21.2314   -9.7507 C   0  0  0  0  0  0  0  0  0  0  0  0
   14.4509  -20.5556   -9.3703 C   0  0  0  0  0  0  0  0  0  0  0  0
   14.4095  -19.8805  -10.7092 C   0  0  0  0  0  0  0  0  0  0  0  0
   15.6935  -20.5563  -11.0896 C   0  0  0  0  0  0  0  0  0  0  0  0
   19.1435  -21.6337  -13.6394 C   0  0  0  0  0  0  0  0  0  0  0  0
   19.0504  -20.6320  -15.5823 C   0  0  0  0  0  0  0  0  0  0  0  0
   18.6781  -19.8050  -16.7771 C   0  0  0  0  0  0  0  0  0  0  0  0
   17.7995  -19.8045  -15.5613 C   0  0  0  0  0  0  0  0  0  0  0  0
   16.5973  -18.9218  -15.7223 C   0  0  0  0  0  0  0  0  0  0  0  0
   18.3291  -20.6868  -14.4700 C   0  0  0  0  0  0  0  0  0  0  0  0
   15.0654  -17.7331  -16.0593 H   0  0  0  0  0  0  0  0  0  0  0  0
   14.1736  -17.7325  -14.8253 H   0  0  0  0  0  0  0  0  0  0  0  0
   13.8465  -17.9959  -13.8276 H   0  0  0  0  0  0  0  0  0  0  0  0
   14.2122  -18.6908  -12.8967 H   0  0  0  0  0  0  0  0  0  0  0  0
   14.9090  -19.2759  -12.6516 H   0  0  0  0  0  0  0  0  0  0  0  0
   17.5369  -20.0463  -14.6976 H   0  0  0  0  0  0  0  0  0  0  0  0
   15.8862  -19.1775  -14.2085 H   0  0  0  0  0  0  0  0  0  0  0  0
   18.3954  -22.5923  -10.6206 H   0  0  0  0  0  0  0  0  0  0  0  0
   19.1747  -22.2752  -12.3557 H   0  0  0  0  0  0  0  0  0  0  0  0
   16.4325  -20.6440  -11.9318 H   0  0  0  0  0  0  0  0  0  0  0  0
   16.1072  -22.0583   -8.5559 H   0  0  0  0  0  0  0  0  0  0  0  0
   13.1670  -19.8798   -8.9899 H   0  0  0  0  0  0  0  0  0  0  0  0
   14.4923  -21.2306   -8.0314 H   0  0  0  0  0  0  0  0  0  0  0  0
   14.0586  -19.0620  -11.9162 H   0  0  0  0  0  0  0  0  0  0  0  0
   13.1256  -19.2047  -10.3287 H   0  0  0  0  0  0  0  0  0  0  0  0
   20.3457  -22.5164  -13.4785 H   0  0  0  0  0  0  0  0  0  0  0  0
   20.3344  -21.3078  -15.9627 H   0  0  0  0  0  0  0  0  0  0  0  0
   19.8243  -20.1323  -17.6877 H   0  0  0  0  0  0  0  0  0  0  0  0
   18.0388  -18.8918  -17.7807 H   0  0  0  0  0  0  0  0  0  0  0  0
   17.2133  -18.6832  -17.0689 H   0  0  0  0  0  0  0  0  0  0  0  0
   15.9101  -17.9972  -16.6828 H   0  0  0  0  0  0  0  0  0  0  0  0
   17.4549  -20.4991  -13.6473 H   0  0  0  0  0  0  0  0  0  0  0  0
  1  2  1  0
  2  3  1  0
  3  4  1  0
  4  5  1  0
  5  6  1  0
  6  7  1  0
  7  8  1  0
  8  9  1  0
  9 10  1  0
 10 11  1  0
  5 12  1  0
 12 13  1  0
 13 14  1  0
 14 15  1  0
 15 16  1  0
 15 17  1  0
 16  1  1  0
 11  3  1  0
 17 12  1  0
 17  5  1  0
 11  7  1  0
 15 13  1  0
 11  8  1  0
  1 18  1  0
  1 19  1  0
  2 20  1  0
  2 21  1  0
  3 22  1  0
  4 23  1  0
  4 24  1  0
  6 25  1  0
  6 26  1  0
  7 27  1  0
  8 28  1  0
  9 29  1  0
  9 30  1  0
 10 31  1  0
 10 32  1  0
 12 33  1  0
 13 34  1  0
 14 35  1  0
 14 36  1  0
 16 37  1  0
 16 38  1  0
 17 39  1  0
M  END
