
     RDKit          2D

 44 47  0  0  0  0  0  0  0  0999 V2000
   12.9214  -24.5410   -5.2244 C   0  0  0  0  0  0  0  0  0  0  0  0
   13.7775  -23.3120   -5.1436 C   0  0  0  0  0  0  0  0  0  0  0  0
   14.0837  -22.5283   -6.3854 C   0  0  0  0  0  0  0  0  0  0  0  0
   13.9530  -21.5055   -7.4748 C   0  0  0  0  0  0  0  0  0  0  0  0
   14.9742  -21.4434   -8.5717 C   0  0  0  0  0  0  0  0  0  0  0  0
   16.1261  -22.4041   -8.5794 C   0  0  0  0  0  0  0  0  0  0  0  0
   16.4324  -21.6205   -9.8212 C   0  0  0  0  0  0  0  0  0  0  0  0
   17.6906  -22.3091  -10.2600 C   0  0  0  0  0  0  0  0  0  0  0  0
   18.8248  -22.4469  -11.2319 C   0  0  0  0  0  0  0  0  0  0  0  0
   18.2729  -21.3082  -12.0374 C   0  0  0  0  0  0  0  0  0  0  0  0
   17.7209  -20.1696  -12.8430 C   0  0  0  0  0  0  0  0  0  0  0  0
   17.1386  -21.1705  -11.0656 C   0  0  0  0  0  0  0  0  0  0  0  0
   16.2568  -23.4269   -7.4900 C   0  0  0  0  0  0  0  0  0  0  0  0
   17.4696  -23.7604   -8.3072 C   0  0  0  0  0  0  0  0  0  0  0  0
   18.7279  -24.4489   -8.7461 O   0  0  0  0  0  0  0  0  0  0  0  0
   18.0217  -24.8989   -7.5016 C   0  0  0  0  0  0  0  0  0  0  0  0
   18.9283  -26.0159   -7.0769 C   0  0  0  0  0  0  0  0  0  0  0  0
   15.2356  -23.4890   -6.3930 C   0  0  0  0  0  0  0  0  0  0  0  0
   12.6151  -25.3247   -3.9827 H   0  0  0  0  0  0  0  0  0  0  0  0
   12.3715  -24.9864   -6.5471 H   0  0  0  0  0  0  0  0  0  0  0  0
   14.2414  -23.0115   -3.7492 H   0  0  0  0  0  0  0  0  0  0  0  0
   12.8255  -21.8396   -5.9465 H   0  0  0  0  0  0  0  0  0  0  0  0
   12.7402  -21.1720   -6.6576 H   0  0  0  0  0  0  0  0  0  0  0  0
   13.4011  -20.3668   -8.2803 H   0  0  0  0  0  0  0  0  0  0  0  0
   14.0676  -20.3263   -8.9963 H   0  0  0  0  0  0  0  0  0  0  0  0
   15.2790  -21.1376   -9.2419 H   0  0  0  0  0  0  0  0  0  0  0  0
   17.3844  -23.0928   -9.0183 H   0  0  0  0  0  0  0  0  0  0  0  0
   15.8580  -21.0731   -9.8989 H   0  0  0  0  0  0  0  0  0  0  0  0
   17.9302  -23.3733   -9.2304 H   0  0  0  0  0  0  0  0  0  0  0  0
   19.9591  -22.5846  -12.2038 H   0  0  0  0  0  0  0  0  0  0  0  0
   19.3768  -23.5855  -10.4264 H   0  0  0  0  0  0  0  0  0  0  0  0
   19.4071  -21.4460  -13.0093 H   0  0  0  0  0  0  0  0  0  0  0  0
   17.1690  -19.0310  -13.6486 H   0  0  0  0  0  0  0  0  0  0  0  0
   18.8661  -20.2941  -13.8038 H   0  0  0  0  0  0  0  0  0  0  0  0
   16.5170  -19.9072  -11.9876 H   0  0  0  0  0  0  0  0  0  0  0  0
   16.2020  -20.0632  -11.4484 H   0  0  0  0  0  0  0  0  0  0  0  0
   16.6664  -24.5403   -6.5720 H   0  0  0  0  0  0  0  0  0  0  0  0
   17.3388  -22.7376   -9.3967 H   0  0  0  0  0  0  0  0  0  0  0  0
   17.0985  -25.1000   -6.3367 H   0  0  0  0  0  0  0  0  0  0  0  0
   19.8350  -27.1328   -6.6523 H   0  0  0  0  0  0  0  0  0  0  0  0
   18.0516  -26.2755   -5.8878 H   0  0  0  0  0  0  0  0  0  0  0  0
   19.8051  -25.7562   -8.2661 H   0  0  0  0  0  0  0  0  0  0  0  0
   16.1422  -24.6061   -5.9685 H   0  0  0  0  0  0  0  0  0  0  0  0
   14.6620  -24.0643   -5.1320 H   0  0  0  0  0  0  0  0  0  0  0  0
  1  2  2  3
  2  3  1  0
  3  4  1  0
  4  5  1  0
  5  6  1  0
  6  7  1  0
  7  8  1  0
  8  9  1  0
  9 10  1  0
 10 11  1  0
 10 12  1  0
  6 13  1  0
 13 14  1  0
 14 15  1  0
 15 16  1  0
 16 17  1  0
 13 18  1  0
 18  3  1  0
 12  7  1  0
 16 14  1  0
 12  8  1  0
  1 19  1  0
  1 20  1  0
  2 21  1  0
  3 22  1  0
  4 23  1  0
  4 24  1  0
  5 25  1  0
  5 26  1  0
  6 27  1  0
  7 28  1  0
  8 29  1  0
  9 30  1  0
  9 31  1  0
 10 32  1  0
 11 33  1  0
 11 34  1  0
 11 35  1  0
 12 36  1  0
 13 37  1  0
 14 38  1  0
 16 39  1  0
 17 40  1  0
 17 41  1  0
 17 42  1  0
 18 43  1  0
 18 44  1  0
M  END
