
     RDKit          2D

 60 62  0  0  0  0  0  0  0  0999 V2000
    6.1457   22.7856    3.1095 C   0  0  0  0  0  0  0  0  0  0  0  0
    4.9944   23.6944    2.7952 C   0  0  0  0  0  0  0  0  0  0  0  0
    4.5941   24.5301    1.6155 N   0  0  0  0  0  2  0  0  0  0  0  0
    3.3663   24.9797    2.3507 C   0  0  0  0  0  0  0  0  0  0  0  0
    3.3651   25.6354    1.0017 N   0  0  0  0  0  2  0  0  0  0  0  0
    2.0736   26.3213    1.3363 C   0  0  0  0  0  0  0  0  0  0  0  0
    2.0750   25.6655    2.6854 C   0  0  0  0  0  0  0  0  0  0  0  0
    1.6772   25.2538    4.0718 C   0  0  0  0  0  0  0  0  0  0  0  0
    0.4969   26.1471    3.8288 C   0  0  0  0  0  0  0  0  0  0  0  0
   -0.6833   27.0404    3.5859 C   0  0  0  0  0  0  0  0  0  0  0  0
   -1.8636   27.9337    3.3429 N   0  0  0  0  0  0  0  0  0  0  0  0
   -2.9075   28.1030    4.4066 C   0  0  0  0  0  0  0  0  0  0  0  0
   -3.9515   28.2723    5.4703 C   0  0  0  0  0  0  0  0  0  0  0  0
   -4.9955   28.4416    6.5340 C   0  0  0  0  0  0  0  0  0  0  0  0
   -6.0394   28.6109    7.5978 N   0  0  0  0  0  0  0  0  0  0  0  0
   -5.9030   27.8869    8.9044 C   0  0  0  0  0  0  0  0  0  0  0  0
   -4.6189   27.2734    8.4304 O   0  0  0  0  0  0  0  0  0  0  0  0
   -3.8588   26.3397    9.3250 C   0  0  0  0  0  0  0  0  0  0  0  0
   -5.7667   27.1630   10.2110 C   0  0  0  0  0  0  0  0  0  0  0  0
   -5.6304   26.4391   11.5177 C   0  0  0  0  0  0  0  0  0  0  0  0
   -7.0512   27.7760   10.6846 C   0  0  0  0  0  0  0  0  0  0  0  0
   -8.3357   28.3889   11.1583 N   0  0  0  0  0  0  0  0  0  0  0  0
   -8.3176   29.7017   11.8838 C   0  0  0  0  0  0  0  0  0  0  0  0
    2.7227   24.3135    4.5941 C   0  0  0  0  0  0  0  0  0  0  0  0
    3.7666   24.1441    3.5304 C   0  0  0  0  0  0  0  0  0  0  0  0
    7.2279   22.5675    2.0941 H   0  0  0  0  0  0  0  0  0  0  0  0
    6.2146   22.0948    4.4391 H   0  0  0  0  0  0  0  0  0  0  0  0
    0.9114   26.9386    1.6376 H   0  0  0  0  0  0  0  0  0  0  0  0
    2.0724   26.9770   -0.0127 H   0  0  0  0  0  0  0  0  0  0  0  0
    1.3418   26.1615    2.6558 H   0  0  0  0  0  0  0  0  0  0  0  0
    1.0327   25.0288    5.4075 H   0  0  0  0  0  0  0  0  0  0  0  0
   -0.0477   25.7955    5.1816 H   0  0  0  0  0  0  0  0  0  0  0  0
    0.7078   26.3904    3.0996 H   0  0  0  0  0  0  0  0  0  0  0  0
   -1.1848   26.7543    4.9704 H   0  0  0  0  0  0  0  0  0  0  0  0
   -0.1818   27.3264    2.2014 H   0  0  0  0  0  0  0  0  0  0  0  0
   -1.9999   28.6575    2.0362 H   0  0  0  0  0  0  0  0  0  0  0  0
   -2.1440   29.2643    4.9710 H   0  0  0  0  0  0  0  0  0  0  0  0
   -3.6710   26.9418    3.8422 H   0  0  0  0  0  0  0  0  0  0  0  0
   -3.1877   29.4332    6.0351 H   0  0  0  0  0  0  0  0  0  0  0  0
   -4.7152   27.1115    4.9055 H   0  0  0  0  0  0  0  0  0  0  0  0
   -5.7591   27.2807    5.9693 H   0  0  0  0  0  0  0  0  0  0  0  0
   -4.2317   29.6026    7.0987 H   0  0  0  0  0  0  0  0  0  0  0  0
   -7.2197   29.5041    7.3548 H   0  0  0  0  0  0  0  0  0  0  0  0
   -7.1942   28.5841    9.2155 H   0  0  0  0  0  0  0  0  0  0  0  0
   -3.0987   25.4060   10.2197 H   0  0  0  0  0  0  0  0  0  0  0  0
   -2.8833   26.0724    8.2173 H   0  0  0  0  0  0  0  0  0  0  0  0
   -4.7343   26.4911   10.5336 H   0  0  0  0  0  0  0  0  0  0  0  0
   -4.5187   26.3313   10.2372 H   0  0  0  0  0  0  0  0  0  0  0  0
   -5.4940   25.7151   12.8243 H   0  0  0  0  0  0  0  0  0  0  0  0
   -4.3448   25.8276   11.0447 H   0  0  0  0  0  0  0  0  0  0  0  0
   -6.8897   26.9577   12.1463 H   0  0  0  0  0  0  0  0  0  0  0  0
   -7.0749   27.1284   12.0374 H   0  0  0  0  0  0  0  0  0  0  0  0
   -7.3407   28.5730    9.4473 H   0  0  0  0  0  0  0  0  0  0  0  0
   -9.6383   27.6891   10.9065 H   0  0  0  0  0  0  0  0  0  0  0  0
   -8.2995   31.0145   12.6093 H   0  0  0  0  0  0  0  0  0  0  0  0
   -8.4373   30.4261   10.5758 H   0  0  0  0  0  0  0  0  0  0  0  0
   -8.1979   28.9772   13.1918 H   0  0  0  0  0  0  0  0  0  0  0  0
    1.8596   24.2851    5.8206 H   0  0  0  0  0  0  0  0  0  0  0  0
    3.5878   23.3672    5.3727 H   0  0  0  0  0  0  0  0  0  0  0  0
    4.3541   23.2484    4.5804 H   0  0  0  0  0  0  0  0  0  0  0  0
  1  2  2  3
  2  3  1  0
  3  4  1  0
  4  5  1  0
  5  6  1  0
  6  7  1  0
  7  8  1  0
  8  9  1  0
  9 10  1  0
 10 11  1  0
 11 12  1  0
 12 13  1  0
 13 14  1  0
 14 15  1  0
 15 16  1  0
 16 17  1  0
 17 18  1  0
 16 19  1  0
 19 20  1  0
 19 21  1  0
 21 22  1  0
 22 23  1  0
  8 24  1  0
 24 25  1  0
 25  2  1  0
  7  4  1  0
 25  4  1  0
  1 26  1  0
  1 27  1  0
  6 28  1  0
  6 29  1  0
  7 30  1  0
  8 31  1  0
  9 32  1  0
  9 33  1  0
 10 34  1  0
 10 35  1  0
 11 36  1  0
 12 37  1  0
 12 38  1  0
 13 39  1  0
 13 40  1  0
 14 41  1  0
 14 42  1  0
 15 43  1  0
 16 44  1  0
 18 45  1  0
 18 46  1  0
 18 47  1  0
 19 48  1  0
 20 49  1  0
 20 50  1  0
 20 51  1  0
 21 52  1  0
 21 53  1  0
 22 54  1  0
 23 55  1  0
 23 56  1  0
 23 57  1  0
 24 58  1  0
 24 59  1  0
 25 60  1  0
M  RAD  2   3   2   5   2
M  END
