
     RDKit          2D

 29 32  0  0  0  0  0  0  0  0999 V2000
   17.6892  -24.5313   -6.6122 C   0  0  0  0  0  0  0  0  0  0  0  0
   17.9249  -23.9689   -7.9827 C   0  0  0  0  0  0  0  0  0  0  0  0
   16.9519  -22.8275   -7.9668 C   0  0  0  0  0  0  0  0  0  0  0  0
   16.1781  -21.6284   -8.4286 C   0  0  0  0  0  0  0  0  0  0  0  0
   17.1876  -22.2651   -9.3372 C   0  0  0  0  0  0  0  0  0  0  0  0
   17.0569  -21.3741  -10.5368 C   0  0  0  0  0  0  0  0  0  0  0  0
   15.7960  -20.5919  -10.7563 C   0  0  0  0  0  0  0  0  0  0  0  0
   16.9263  -20.4831  -11.7364 C   0  0  0  0  0  0  0  0  0  0  0  0
   18.1873  -21.2653  -11.5169 C   0  0  0  0  0  0  0  0  0  0  0  0
   18.9745  -20.8327  -12.7182 O   0  0  0  0  0  0  0  0  0  0  0  0
   19.1747  -22.1978  -10.8802 O   0  0  0  0  0  0  0  0  0  0  0  0
   18.9799  -24.9150   -8.4746 C   0  0  0  0  0  0  0  0  0  0  0  0
   18.4986  -23.8030   -9.3586 C   0  0  0  0  0  0  0  0  0  0  0  0
   17.4535  -25.0937   -5.2418 H   0  0  0  0  0  0  0  0  0  0  0  0
   16.7434  -23.6464   -6.2317 H   0  0  0  0  0  0  0  0  0  0  0  0
   18.5833  -25.5396   -6.6921 H   0  0  0  0  0  0  0  0  0  0  0  0
   16.3421  -22.8454   -6.7624 H   0  0  0  0  0  0  0  0  0  0  0  0
   15.3357  -21.3780   -7.2131 H   0  0  0  0  0  0  0  0  0  0  0  0
   15.7895  -20.8682   -8.9181 H   0  0  0  0  0  0  0  0  0  0  0  0
   17.7475  -22.7163   -9.6812 H   0  0  0  0  0  0  0  0  0  0  0  0
   15.1920  -20.8040  -10.0088 H   0  0  0  0  0  0  0  0  0  0  0  0
   14.8085  -19.6594  -11.3930 H   0  0  0  0  0  0  0  0  0  0  0  0
   16.7956  -19.5921  -12.9360 H   0  0  0  0  0  0  0  0  0  0  0  0
   20.3568  -21.3704  -12.9423 H   0  0  0  0  0  0  0  0  0  0  0  0
   20.5116  -22.4260  -11.5210 H   0  0  0  0  0  0  0  0  0  0  0  0
   19.2116  -25.7991   -7.4810 H   0  0  0  0  0  0  0  0  0  0  0  0
   19.9894  -25.5517   -9.3831 H   0  0  0  0  0  0  0  0  0  0  0  0
   19.3410  -24.0534  -10.5742 H   0  0  0  0  0  0  0  0  0  0  0  0
   18.1370  -23.1733   -9.6876 H   0  0  0  0  0  0  0  0  0  0  0  0
  1  2  1  0
  2  3  1  0
  3  4  1  0
  4  5  1  0
  5  6  1  0
  6  7  1  0
  7  8  1  0
  8  9  1  0
  9 10  1  0
  9 11  1  0
  2 12  1  0
 12 13  1  0
 13  2  1  0
  5  3  1  0
  8  6  1  0
  9  6  1  0
  1 14  1  0
  1 15  1  0
  1 16  1  0
  3 17  1  0
  4 18  1  0
  4 19  1  0
  5 20  1  0
  7 21  1  0
  7 22  1  0
  8 23  1  0
 10 24  1  0
 11 25  1  0
 12 26  1  0
 12 27  1  0
 13 28  1  0
 13 29  1  0
M  END
