
     RDKit          2D

 98106  0  0  0  0  0  0  0  0999 V2000
   -5.2524   25.8559    4.7018 C   0  0  0  0  0  0  0  0  0  0  0  0
   -3.8491   25.7609    4.1804 C   0  0  0  0  0  0  0  0  0  0  0  0
   -3.4529   25.4684    2.7636 C   0  0  0  0  0  0  0  0  0  0  0  0
   -1.9545   25.4685    2.6919 C   0  0  0  0  0  0  0  0  0  0  0  0
   -0.5036   25.4046    2.3169 C   0  0  0  0  0  0  0  0  0  0  0  0
   -1.4248   25.7611    4.0644 C   0  0  0  0  0  0  0  0  0  0  0  0
   -0.1627   25.9392    4.8552 C   0  0  0  0  0  0  0  0  0  0  0  0
    1.3347   25.9360    4.7678 C   0  0  0  0  0  0  0  0  0  0  0  0
    2.7378   26.0582    5.2841 C   0  0  0  0  0  0  0  0  0  0  0  0
    2.7039   25.7507    3.8163 C   0  0  0  0  0  0  0  0  0  0  0  0
    4.2035   25.7462    3.7826 O   0  0  0  0  0  0  0  0  0  0  0  0
    2.6700   25.4431    2.3485 C   0  0  0  0  0  0  0  0  0  0  0  0
    3.1511   25.1567    0.9569 C   0  0  0  0  0  0  0  0  0  0  0  0
    4.1408   25.3971    2.0580 C   0  0  0  0  0  0  0  0  0  0  0  0
    5.4226   25.2499    1.2928 C   0  0  0  0  0  0  0  0  0  0  0  0
    6.7043   25.1026    0.5276 C   0  0  0  0  0  0  0  0  0  0  0  0
    3.8038   26.2846    6.3147 C   0  0  0  0  0  0  0  0  0  0  0  0
    4.3486   26.5761    7.6816 C   0  0  0  0  0  0  0  0  0  0  0  0
    5.8444   26.8874    9.0970 As  0  0  0  0  0  3  0  0  0  0  0  0
    5.1011   27.1471   10.3738 C   0  0  0  0  0  0  0  0  0  0  0  0
    4.2777   26.8823    9.1482 C   0  0  0  0  0  0  0  0  0  0  0  0
    3.6036   27.1503   10.4612 C   0  0  0  0  0  0  0  0  0  0  0  0
    4.1484   27.4418   11.8281 O   0  0  0  0  0  0  0  0  0  0  0  0
    2.4429   27.3337   11.3933 C   0  0  0  0  0  0  0  0  0  0  0  0
    0.9961   27.4008   11.7835 C   0  0  0  0  0  0  0  0  0  0  0  0
   -0.4866   27.3400   11.5643 C   0  0  0  0  0  0  0  0  0  0  0  0
   -1.7487   27.1619   10.7736 C   0  0  0  0  0  0  0  0  0  0  0  0
   -2.5721   26.8971    9.5480 C   0  0  0  0  0  0  0  0  0  0  0  0
   -1.0894   26.9579    9.7672 O   0  0  0  0  0  0  0  0  0  0  0  0
    0.1727   27.1361   10.5580 C   0  0  0  0  0  0  0  0  0  0  0  0
   -3.9751   26.7750    9.0318 C   0  0  0  0  0  0  0  0  0  0  0  0
   -4.7410   27.0318   10.2957 C   0  0  0  0  0  0  0  0  0  0  0  0
   -5.5069   27.2886   11.5595 C   0  0  0  0  0  0  0  0  0  0  0  0
   -6.2728   27.5454   12.8235 C   0  0  0  0  0  0  0  0  0  0  0  0
   -6.7965   27.1133   10.8138 C   0  0  0  0  0  0  0  0  0  0  0  0
   -8.0860   26.9381   10.0679 C   0  0  0  0  0  0  0  0  0  0  0  0
   -9.3756   26.7629    9.3220 C   0  0  0  0  0  0  0  0  0  0  0  0
   -2.8143   26.5915    8.0996 C   0  0  0  0  0  0  0  0  0  0  0  0
   -2.4336   26.2980    6.6788 C   0  0  0  0  0  0  0  0  0  0  0  0
   -3.0507   26.0120    5.3418 C   0  0  0  0  0  0  0  0  0  0  0  0
   -1.4957   26.0673    5.5311 C   0  0  0  0  0  0  0  0  0  0  0  0
   -6.4128   25.6501    3.7738 H   0  0  0  0  0  0  0  0  0  0  0  0
   -5.4953   26.1568    6.1511 H   0  0  0  0  0  0  0  0  0  0  0  0
   -3.3660   25.1625    1.2977 H   0  0  0  0  0  0  0  0  0  0  0  0
   -4.9330   25.4044    2.5289 H   0  0  0  0  0  0  0  0  0  0  0  0
   -2.1810   25.1626    1.2410 H   0  0  0  0  0  0  0  0  0  0  0  0
    0.8902   25.3045    1.7716 H   0  0  0  0  0  0  0  0  0  0  0  0
   -0.0785   25.5679    3.0766 H   0  0  0  0  0  0  0  0  0  0  0  0
   -0.8838   25.1037    0.8974 H   0  0  0  0  0  0  0  0  0  0  0  0
    0.0621   25.7659    4.0161 H   0  0  0  0  0  0  0  0  0  0  0  0
    1.0568   25.7610    3.9452 H   0  0  0  0  0  0  0  0  0  0  0  0
    1.7601   25.7810    4.0065 H   0  0  0  0  0  0  0  0  0  0  0  0
    3.7868   25.9427    4.6820 H   0  0  0  0  0  0  0  0  0  0  0  0
    1.6159   25.7265    3.7102 H   0  0  0  0  0  0  0  0  0  0  0  0
    4.9240   25.4776    2.4947 H   0  0  0  0  0  0  0  0  0  0  0  0
    1.2261   25.3460    1.9540 H   0  0  0  0  0  0  0  0  0  0  0  0
    1.8355   24.9965    0.2543 H   0  0  0  0  0  0  0  0  0  0  0  0
    3.9393   24.9029   -0.2938 H   0  0  0  0  0  0  0  0  0  0  0  0
    5.0076   25.6563    3.2546 H   0  0  0  0  0  0  0  0  0  0  0  0
    4.7723   25.8594    0.0863 H   0  0  0  0  0  0  0  0  0  0  0  0
    6.2242   24.6269    2.3970 H   0  0  0  0  0  0  0  0  0  0  0  0
    7.9860   24.9554   -0.2376 H   0  0  0  0  0  0  0  0  0  0  0  0
    7.0994   23.9558    1.4101 H   0  0  0  0  0  0  0  0  0  0  0  0
    6.3092   26.2494   -0.3549 H   0  0  0  0  0  0  0  0  0  0  0  0
    4.5471   26.0248    5.0380 H   0  0  0  0  0  0  0  0  0  0  0  0
    5.3036   26.3028    6.3298 H   0  0  0  0  0  0  0  0  0  0  0  0
    5.8288   26.5407    7.4414 H   0  0  0  0  0  0  0  0  0  0  0  0
    7.2912   26.8202    8.7068 H   0  0  0  0  0  0  0  0  0  0  0  0
    6.4410   27.2981   11.0309 H   0  0  0  0  0  0  0  0  0  0  0  0
    2.8747   26.7602    8.6320 H   0  0  0  0  0  0  0  0  0  0  0  0
    3.2105   27.6726   12.9757 H   0  0  0  0  0  0  0  0  0  0  0  0
    3.5450   27.5527   12.3870 H   0  0  0  0  0  0  0  0  0  0  0  0
    2.2677   27.6372   12.8518 H   0  0  0  0  0  0  0  0  0  0  0  0
    1.0823   27.7084   13.2491 H   0  0  0  0  0  0  0  0  0  0  0  0
   -0.1416   27.6424   12.9925 H   0  0  0  0  0  0  0  0  0  0  0  0
   -1.5960   27.5361   12.5546 H   0  0  0  0  0  0  0  0  0  0  0  0
   -2.2049   27.4502   12.1731 H   0  0  0  0  0  0  0  0  0  0  0  0
   -3.1728   27.2446   11.2373 H   0  0  0  0  0  0  0  0  0  0  0  0
    1.6436   27.0901   10.2675 H   0  0  0  0  0  0  0  0  0  0  0  0
    0.4513   26.8368    9.1148 H   0  0  0  0  0  0  0  0  0  0  0  0
   -5.1122   26.5636    8.0765 H   0  0  0  0  0  0  0  0  0  0  0  0
   -5.9277   26.8306    9.4004 H   0  0  0  0  0  0  0  0  0  0  0  0
   -3.5543   27.2329   11.1909 H   0  0  0  0  0  0  0  0  0  0  0  0
   -4.2173   27.4638   12.3054 H   0  0  0  0  0  0  0  0  0  0  0  0
   -7.0388   27.8022   14.0874 H   0  0  0  0  0  0  0  0  0  0  0  0
   -5.1629   28.4253   13.3173 H   0  0  0  0  0  0  0  0  0  0  0  0
   -7.4678   26.7033   12.4874 H   0  0  0  0  0  0  0  0  0  0  0  0
   -7.7139   27.3520   11.9762 H   0  0  0  0  0  0  0  0  0  0  0  0
   -6.1934   26.8319    9.4694 H   0  0  0  0  0  0  0  0  0  0  0  0
   -8.8520   27.1965   11.3314 H   0  0  0  0  0  0  0  0  0  0  0  0
   -7.3201   26.6797    8.8043 H   0  0  0  0  0  0  0  0  0  0  0  0
  -10.6653   26.5876    8.5762 H   0  0  0  0  0  0  0  0  0  0  0  0
  -10.0700   26.4128   10.6048 H   0  0  0  0  0  0  0  0  0  0  0  0
   -8.6813   27.1130    8.0393 H   0  0  0  0  0  0  0  0  0  0  0  0
   -4.0764   26.4134    7.3088 H   0  0  0  0  0  0  0  0  0  0  0  0
   -3.8456   26.1808    6.1866 H   0  0  0  0  0  0  0  0  0  0  0  0
   -4.3954   26.1352    5.9949 H   0  0  0  0  0  0  0  0  0  0  0  0
   -0.6723   26.3320    6.7567 H   0  0  0  0  0  0  0  0  0  0  0  0
  1  2  2  3
  2  3  1  0
  3  4  1  0
  4  5  1  0
  4  6  1  0
  6  7  1  0
  7  8  1  0
  8  9  1  0
  9 10  1  0
 10 11  1  0
 10 12  1  0
 12 13  1  0
 13 14  1  0
 14 15  1  0
 15 16  1  0
  9 17  1  0
 17 18  1  0
 18 19  1  0
 19 20  1  0
 20 21  1  0
 21 22  1  0
 22 23  1  0
 22 24  1  0
 24 25  1  0
 25 26  1  0
 26 27  1  0
 27 28  1  0
 28 29  1  0
 29 30  1  0
 28 31  1  0
 31 32  1  0
 32 33  1  0
 33 34  1  0
 33 35  1  0
 35 36  1  0
 36 37  1  0
 31 38  1  0
 38 39  1  0
 39 40  1  0
 39 41  1  0
 40  2  1  0
 40  6  1  0
 41  6  1  0
 41  7  1  0
 14 12  1  0
 21 18  1  0
 30 25  1  0
 22 20  1  0
 38 28  1  0
  1 42  1  0
  1 43  1  0
  3 44  1  0
  3 45  1  0
  4 46  1  0
  5 47  1  0
  5 48  1  0
  5 49  1  0
  7 50  1  0
  8 51  1  0
  8 52  1  0
  9 53  1  0
 10 54  1  0
 11 55  1  0
 12 56  1  0
 13 57  1  0
 13 58  1  0
 14 59  1  0
 15 60  1  0
 15 61  1  0
 16 62  1  0
 16 63  1  0
 16 64  1  0
 17 65  1  0
 17 66  1  0
 18 67  1  0
 19 68  1  0
 20 69  1  0
 21 70  1  0
 23 71  1  0
 24 72  1  0
 24 73  1  0
 25 74  1  0
 26 75  1  0
 26 76  1  0
 27 77  1  0
 27 78  1  0
 30 79  1  0
 30 80  1  0
 31 81  1  0
 32 82  1  0
 32 83  1  0
 33 84  1  0
 34 85  1  0
 34 86  1  0
 34 87  1  0
 35 88  1  0
 35 89  1  0
 36 90  1  0
 36 91  1  0
 37 92  1  0
 37 93  1  0
 37 94  1  0
 38 95  1  0
 39 96  1  0
 40 97  1  0
 41 98  1  0
M  END
