
     RDKit          2D

 24 24  0  0  0  0  0  0  0  0999 V2000
   20.0462  -23.5095  -10.9984 C   0  0  0  0  0  0  0  0  0  0  0  0
   18.8581  -22.9958  -10.2403 C   0  0  0  0  0  0  0  0  0  0  0  0
   19.2524  -21.5573  -10.0816 C   0  0  0  0  0  0  0  0  0  0  0  0
   18.0512  -24.2559  -10.1358 O   0  0  0  0  0  0  0  0  0  0  0  0
   17.5331  -22.9818   -9.5374 C   0  0  0  0  0  0  0  0  0  0  0  0
   17.4673  -21.5384   -9.1345 C   0  0  0  0  0  0  0  0  0  0  0  0
   18.0637  -21.0442   -9.3233 O   0  0  0  0  0  0  0  0  0  0  0  0
   16.2792  -21.0248   -8.3765 C   0  0  0  0  0  0  0  0  0  0  0  0
   15.0911  -20.5111   -7.6184 C   0  0  0  0  0  0  0  0  0  0  0  0
   15.0253  -19.0677   -7.2155 O   0  0  0  0  0  0  0  0  0  0  0  0
   13.9688  -21.4409   -7.2632 C   0  0  0  0  0  0  0  0  0  0  0  0
   12.8466  -22.3707   -6.9080 O   0  0  0  0  0  0  0  0  0  0  0  0
   21.2343  -24.0231  -11.7565 H   0  0  0  0  0  0  0  0  0  0  0  0
   19.4347  -24.8788  -11.0288 H   0  0  0  0  0  0  0  0  0  0  0  0
   20.6551  -22.4593  -11.0488 H   0  0  0  0  0  0  0  0  0  0  0  0
   19.6468  -20.1188   -9.9228 H   0  0  0  0  0  0  0  0  0  0  0  0
   20.3177  -21.6309  -10.6612 H   0  0  0  0  0  0  0  0  0  0  0  0
   18.6449  -21.2340   -9.6793 H   0  0  0  0  0  0  0  0  0  0  0  0
   16.2309  -23.4690   -8.9744 H   0  0  0  0  0  0  0  0  0  0  0  0
   16.8894  -19.6548   -8.3484 H   0  0  0  0  0  0  0  0  0  0  0  0
   15.6690  -22.3947   -8.4046 H   0  0  0  0  0  0  0  0  0  0  0  0
   13.2638  -20.3204   -6.5580 H   0  0  0  0  0  0  0  0  0  0  0  0
   14.6740  -22.5614   -7.9684 H   0  0  0  0  0  0  0  0  0  0  0  0
   12.9125  -23.8140   -7.3109 H   0  0  0  0  0  0  0  0  0  0  0  0
  1  2  1  0
  2  3  1  0
  2  4  1  0
  4  5  1  0
  5  6  1  0
  6  7  2  0
  6  8  1  0
  8  9  1  0
  9 10  2  0
  9 11  1  0
 11 12  1  0
  5  2  1  0
  1 13  1  0
  1 14  1  0
  1 15  1  0
  3 16  1  0
  3 17  1  0
  3 18  1  0
  5 19  1  0
  8 20  1  0
  8 21  1  0
 11 22  1  0
 11 23  1  0
 12 24  1  0
M  END
