
     RDKit          2D

 18 18  0  0  0  0  0  0  0  0999 V2000
   12.8899  -20.3506   -4.6716 C   0  0  0  0  0  0  0  0  0  0  0  0
   13.5553  -21.6923   -4.5875 C   0  0  0  0  0  0  0  0  0  0  0  0
   13.1660  -22.8136   -3.6704 C   0  0  0  0  0  0  0  0  0  0  0  0
   14.0969  -23.9626   -3.9218 C   0  0  0  0  0  0  0  0  0  0  0  0
   15.0616  -23.5514   -4.9943 N   0  0  0  0  0  0  0  0  0  0  0  0
   16.1670  -24.3951   -5.5566 C   0  0  0  0  0  0  0  0  0  0  0  0
   14.7269  -22.1483   -5.4057 C   0  0  0  0  0  0  0  0  0  0  0  0
   13.3927  -19.3236   -5.6424 H   0  0  0  0  0  0  0  0  0  0  0  0
   11.7218  -20.0358   -3.7849 H   0  0  0  0  0  0  0  0  0  0  0  0
   12.5553  -23.7349   -2.6564 H   0  0  0  0  0  0  0  0  0  0  0  0
   12.1074  -21.8572   -3.2070 H   0  0  0  0  0  0  0  0  0  0  0  0
   14.8595  -25.2540   -3.9502 H   0  0  0  0  0  0  0  0  0  0  0  0
   13.2917  -24.6437   -2.8552 H   0  0  0  0  0  0  0  0  0  0  0  0
   17.2723  -25.2389   -6.1190 H   0  0  0  0  0  0  0  0  0  0  0  0
   15.4222  -25.6352   -5.1599 H   0  0  0  0  0  0  0  0  0  0  0  0
   16.9117  -23.1550   -5.9534 H   0  0  0  0  0  0  0  0  0  0  0  0
   14.6330  -20.7808   -6.0148 H   0  0  0  0  0  0  0  0  0  0  0  0
   15.8788  -22.3184   -6.3512 H   0  0  0  0  0  0  0  0  0  0  0  0
  1  2  2  3
  2  3  1  0
  3  4  1  0
  4  5  1  0
  5  6  1  0
  5  7  1  0
  7  2  1  0
  1  8  1  0
  1  9  1  0
  3 10  1  0
  3 11  1  0
  4 12  1  0
  4 13  1  0
  6 14  1  0
  6 15  1  0
  6 16  1  0
  7 17  1  0
  7 18  1  0
M  END
