
     RDKit          2D

 93106  0  0  0  0  0  0  0  0999 V2000
   -2.2624   23.1379    5.0640 C   0  0  0  0  0  0  0  0  0  0  0  0
   -2.5680   24.5977    5.2242 C   0  0  0  0  0  0  0  0  0  0  0  0
   -3.7372   24.9249    6.1050 C   0  0  0  0  0  0  0  0  0  0  0  0
   -4.8878   24.5851    7.0055 O   0  0  0  0  0  0  0  0  0  0  0  0
   -4.2913   26.2725    6.4617 C   0  0  0  0  0  0  0  0  0  0  0  0
   -5.2476   27.2019    7.1483 C   0  0  0  0  0  0  0  0  0  0  0  0
   -5.5139   27.4314    7.3411 C   0  0  0  0  0  0  0  0  0  0  0  0
   -5.1578   27.4076    7.0689 C   0  0  0  0  0  0  0  0  0  0  0  0
   -5.8910   27.8272    7.6104 C   0  0  0  0  0  0  0  0  0  0  0  0
   -7.0737   28.0442    8.5072 C   0  0  0  0  0  0  0  0  0  0  0  0
   -8.0301   28.9737    9.1939 C   0  0  0  0  0  0  0  0  0  0  0  0
   -7.3211   30.1495    8.5898 C   0  0  0  0  0  0  0  0  0  0  0  0
   -6.3648   29.2200    7.9030 C   0  0  0  0  0  0  0  0  0  0  0  0
   -5.2361   28.6994    7.0632 N   0  0  0  0  0  0  0  0  0  0  0  0
   -4.2664   29.5304    6.2765 C   0  0  0  0  0  0  0  0  0  0  0  0
   -3.5760   28.2832    5.8101 C   0  0  0  0  0  0  0  0  0  0  0  0
   -4.9569   30.7778    6.7429 C   0  0  0  0  0  0  0  0  0  0  0  0
   -5.6474   32.0250    7.2094 C   0  0  0  0  0  0  0  0  0  0  0  0
   -6.3832   26.7970    8.0407 O   0  0  0  0  0  0  0  0  0  0  0  0
   -3.8130   27.6256    6.0255 C   0  0  0  0  0  0  0  0  0  0  0  0
   -2.6624   27.9653    5.1250 C   0  0  0  0  0  0  0  0  0  0  0  0
   -2.4387   29.4280    4.8787 O   0  0  0  0  0  0  0  0  0  0  0  0
   -0.8920   28.7988    3.7235 C   0  0  0  0  0  0  0  0  0  0  0  0
    0.2781   28.4773    2.8417 C   0  0  0  0  0  0  0  0  0  0  0  0
    0.6733   27.0488    2.6112 C   0  0  0  0  0  0  0  0  0  0  0  0
    0.6313   28.5476    2.5670 C   0  0  0  0  0  0  0  0  0  0  0  0
   -0.5584   28.5411    3.4806 O   0  0  0  0  0  0  0  0  0  0  0  0
   -0.5164   27.0423    3.5247 C   0  0  0  0  0  0  0  0  0  0  0  0
   -0.4743   25.5436    3.5689 C   0  0  0  0  0  0  0  0  0  0  0  0
   -1.6641   25.5371    4.4824 C   0  0  0  0  0  0  0  0  0  0  0  0
   -1.7061   27.0360    4.4383 C   0  0  0  0  0  0  0  0  0  0  0  0
    0.7153   25.5500    2.6553 C   0  0  0  0  0  0  0  0  0  0  0  0
    0.7573   24.0513    2.6995 C   0  0  0  0  0  0  0  0  0  0  0  0
    0.7993   22.5525    2.7436 C   0  0  0  0  0  0  0  0  0  0  0  0
    0.8414   21.0538    2.7878 C   0  0  0  0  0  0  0  0  0  0  0  0
    1.4724   19.7590    2.3690 C   0  0  0  0  0  0  0  0  0  0  0  0
    2.0307   21.0601    1.8738 C   0  0  0  0  0  0  0  0  0  0  0  0
    1.9887   22.5589    1.8296 C   0  0  0  0  0  0  0  0  0  0  0  0
    2.9977   23.3139    1.0160 C   0  0  0  0  0  0  0  0  0  0  0  0
    3.5560   24.6150    0.5208 C   0  0  0  0  0  0  0  0  0  0  0  0
    2.5050   25.3588    1.2903 C   0  0  0  0  0  0  0  0  0  0  0  0
    1.4540   26.1027    2.0597 C   0  0  0  0  0  0  0  0  0  0  0  0
    0.4029   26.8465    2.8292 C   0  0  0  0  0  0  0  0  0  0  0  0
    1.9466   24.0577    1.7855 C   0  0  0  0  0  0  0  0  0  0  0  0
   -3.1058   22.1138    5.7636 H   0  0  0  0  0  0  0  0  0  0  0  0
   -1.1131   22.7023    4.2040 H   0  0  0  0  0  0  0  0  0  0  0  0
   -3.6953   23.4261    6.1492 H   0  0  0  0  0  0  0  0  0  0  0  0
   -5.0558   23.1086    7.2098 H   0  0  0  0  0  0  0  0  0  0  0  0
   -5.1952   25.3330    7.2034 H   0  0  0  0  0  0  0  0  0  0  0  0
   -5.6212   24.1082    7.5928 H   0  0  0  0  0  0  0  0  0  0  0  0
   -7.1189   25.7907    8.6568 H   0  0  0  0  0  0  0  0  0  0  0  0
   -4.8554   27.0480    6.8551 H   0  0  0  0  0  0  0  0  0  0  0  0
   -8.9863   29.9031    9.8806 H   0  0  0  0  0  0  0  0  0  0  0  0
   -8.7390   27.7978    9.7980 H   0  0  0  0  0  0  0  0  0  0  0  0
   -6.7341   31.4297    8.0739 H   0  0  0  0  0  0  0  0  0  0  0  0
   -8.2775   31.0789    9.2765 H   0  0  0  0  0  0  0  0  0  0  0  0
   -3.3881   30.5073    5.5525 H   0  0  0  0  0  0  0  0  0  0  0  0
   -2.8855   27.0359    5.3437 H   0  0  0  0  0  0  0  0  0  0  0  0
   -2.4861   29.3135    5.8356 H   0  0  0  0  0  0  0  0  0  0  0  0
   -4.8714   27.5324    5.9001 H   0  0  0  0  0  0  0  0  0  0  0  0
   -3.9878   31.6088    5.9553 H   0  0  0  0  0  0  0  0  0  0  0  0
   -5.9260   29.9467    7.5305 H   0  0  0  0  0  0  0  0  0  0  0  0
   -6.3378   33.2723    7.6758 H   0  0  0  0  0  0  0  0  0  0  0  0
   -4.6777   32.8560    6.4225 H   0  0  0  0  0  0  0  0  0  0  0  0
   -6.6939   31.3522    8.0472 H   0  0  0  0  0  0  0  0  0  0  0  0
   -3.5659   29.0814    5.7616 H   0  0  0  0  0  0  0  0  0  0  0  0
   -4.9461   28.1287    6.8697 H   0  0  0  0  0  0  0  0  0  0  0  0
   -3.2377   30.5696    5.4339 H   0  0  0  0  0  0  0  0  0  0  0  0
   -0.4729   30.1846    3.3312 H   0  0  0  0  0  0  0  0  0  0  0  0
   -1.7394   29.8840    4.3187 H   0  0  0  0  0  0  0  0  0  0  0  0
    1.4526   28.6758    1.9300 H   0  0  0  0  0  0  0  0  0  0  0  0
    0.1456   29.9712    2.8673 H   0  0  0  0  0  0  0  0  0  0  0  0
    0.7346   30.0359    2.4119 H   0  0  0  0  0  0  0  0  0  0  0  0
    1.8070   28.7366    1.6549 H   0  0  0  0  0  0  0  0  0  0  0  0
   -0.4324   24.0448    3.6130 H   0  0  0  0  0  0  0  0  0  0  0  0
   -1.2315   24.1246    4.2224 H   0  0  0  0  0  0  0  0  0  0  0  0
   -1.0882   28.2923    3.8999 H   0  0  0  0  0  0  0  0  0  0  0  0
    1.7459   26.2595    1.8280 H   0  0  0  0  0  0  0  0  0  0  0  0
    1.9012   24.4201    1.8019 H   0  0  0  0  0  0  0  0  0  0  0  0
   -0.3900   22.5461    3.6576 H   0  0  0  0  0  0  0  0  0  0  0  0
   -0.2966   20.6596    3.6820 H   0  0  0  0  0  0  0  0  0  0  0  0
    0.5883   18.7906    3.0975 H   0  0  0  0  0  0  0  0  0  0  0  0
    2.4105   18.8005    1.6972 H   0  0  0  0  0  0  0  0  0  0  0  0
    3.1904   20.6784    1.0024 H   0  0  0  0  0  0  0  0  0  0  0  0
    3.8684   22.2586    0.4010 H   0  0  0  0  0  0  0  0  0  0  0  0
    4.1143   25.9161    0.0256 H   0  0  0  0  0  0  0  0  0  0  0  0
    4.6071   23.8712   -0.2487 H   0  0  0  0  0  0  0  0  0  0  0  0
    3.0633   26.6600    0.7950 H   0  0  0  0  0  0  0  0  0  0  0  0
    1.6224   27.2827    1.1491 H   0  0  0  0  0  0  0  0  0  0  0  0
    0.8117   25.4102    3.2250 H   0  0  0  0  0  0  0  0  0  0  0  0
   -0.4815   27.8831    3.4562 H   0  0  0  0  0  0  0  0  0  0  0  0
   -0.3940   25.7640    3.4947 H   0  0  0  0  0  0  0  0  0  0  0  0
    0.8299   28.2287    2.4327 H   0  0  0  0  0  0  0  0  0  0  0  0
  1  2  2  3
  2  3  1  0
  3  4  1  0
  3  5  1  0
  5  6  1  0
  6  7  1  0
  7  8  2  0
  8  9  1  0
  9 10  1  0
 10 11  1  0
 11 12  1  0
 12 13  1  0
 13 14  1  0
 14 15  1  0
 15 16  1  0
 15 17  1  0
 17 18  1  0
 10 19  1  0
  5 20  1  0
 20 21  1  0
 21 22  1  0
 21 23  1  0
 23 24  1  0
 24 25  1  0
 25 26  1  0
 26 27  1  0
 27 28  1  0
 28 29  1  0
 29 30  1  0
 30 31  1  0
 29 32  1  0
 32 33  1  0
 33 34  1  0
 34 35  1  0
 35 36  1  0
 36 37  1  0
 37 38  1  0
 38 39  1  0
 39 40  1  0
 40 41  1  0
 41 42  1  0
 42 43  1  0
 41 44  1  0
 30  2  1  0
 44 33  1  0
 14  6  1  0
 31 21  1  0
 38 34  1  0
 44 39  1  0
 19  6  1  0
 28 25  1  0
 37 35  1  0
 44 38  1  0
 13  9  1  0
 32 25  1  0
 13 10  1  0
 31 28  1  0
  1 45  1  0
  1 46  1  0
  3 47  1  0
  4 48  1  0
  5 49  1  0
  7 50  1  0
  8 51  1  0
  9 52  1  0
 11 53  1  0
 11 54  1  0
 12 55  1  0
 12 56  1  0
 15 57  1  0
 16 58  1  0
 16 59  1  0
 16 60  1  0
 17 61  1  0
 17 62  1  0
 18 63  1  0
 18 64  1  0
 18 65  1  0
 20 66  1  0
 20 67  1  0
 22 68  1  0
 23 69  1  0
 23 70  1  0
 24 71  1  0
 24 72  1  0
 26 73  1  0
 26 74  1  0
 29 75  1  0
 30 76  1  0
 31 77  1  0
 32 78  1  0
 33 79  1  0
 34 80  1  0
 35 81  1  0
 36 82  1  0
 36 83  1  0
 37 84  1  0
 39 85  1  0
 40 86  1  0
 40 87  1  0
 41 88  1  0
 42 89  1  0
 42 90  1  0
 43 91  1  0
 43 92  1  0
 43 93  1  0
M  END
