
     RDKit          2D

 60 63  0  0  0  0  0  0  0  0999 V2000
   -2.0746   27.3439    4.7993 C   0  0  0  0  0  0  0  0  0  0  0  0
   -1.7427   26.5337    6.0173 C   0  0  0  0  0  0  0  0  0  0  0  0
   -2.4794   26.1421    7.2638 C   0  0  0  0  0  0  0  0  0  0  0  0
   -3.6856   26.8961    6.7879 C   0  0  0  0  0  0  0  0  0  0  0  0
   -4.8918   27.6502    6.3119 C   0  0  0  0  0  0  0  0  0  0  0  0
   -1.2733   25.3881    7.7398 N   0  0  0  0  0  0  0  0  0  0  0  0
   -0.0671   24.6340    8.2158 C   0  0  0  0  0  0  0  0  0  0  0  0
    1.3458   24.1768    8.0048 C   0  0  0  0  0  0  0  0  0  0  0  0
    0.6697   25.0257    6.9693 C   0  0  0  0  0  0  0  0  0  0  0  0
    1.6935   25.2088    5.8884 N   0  0  0  0  0  0  0  0  0  0  0  0
    1.3616   26.0189    4.6705 C   0  0  0  0  0  0  0  0  0  0  0  0
    1.0296   26.8290    3.4524 C   0  0  0  0  0  0  0  0  0  0  0  0
    0.6977   27.6392    2.2344 O   0  0  0  0  0  0  0  0  0  0  0  0
    2.8226   26.2628    4.4344 O   0  0  0  0  0  0  0  0  0  0  0  0
    3.2658   27.0863    3.2616 Al  0  0  0  0  0  3  0  0  0  0  0  0
    2.2477   27.6659    2.3248 C   0  0  0  0  0  0  0  0  0  0  0  0
    0.9151   27.9999    1.7227 C   0  0  0  0  0  0  0  0  0  0  0  0
    2.6908   28.4894    1.1520 C   0  0  0  0  0  0  0  0  0  0  0  0
    4.1519   28.7333    0.9159 C   0  0  0  0  0  0  0  0  0  0  0  0
    5.1699   28.1536    1.8528 C   0  0  0  0  0  0  0  0  0  0  0  0
    6.5026   27.8197    2.4549 O   0  0  0  0  0  0  0  0  0  0  0  0
    4.7268   27.3302    3.0256 As  0  0  0  0  0  3  0  0  0  0  0  0
    5.7448   26.7505    3.9624 C   0  0  0  0  0  0  0  0  0  0  0  0
    4.6455   26.1336    4.7754 O   0  0  0  0  0  0  0  0  0  0  0  0
    3.2141   26.3282    4.3713 C   0  0  0  0  0  0  0  0  0  0  0  0
    6.8442   27.3673    3.1495 O   0  0  0  0  0  0  0  0  0  0  0  0
    6.5124   28.1787    1.9324 O   0  0  0  0  0  0  0  0  0  0  0  0
   -0.5365   25.7797    6.4933 C   0  0  0  0  0  0  0  0  0  0  0  0
   -3.3716   28.0361    4.5014 H   0  0  0  0  0  0  0  0  0  0  0  0
   -1.1772   27.6268    3.6311 H   0  0  0  0  0  0  0  0  0  0  0  0
   -3.2162   25.7504    8.5104 H   0  0  0  0  0  0  0  0  0  0  0  0
   -3.8599   27.4820    8.1577 H   0  0  0  0  0  0  0  0  0  0  0  0
   -3.5113   26.3102    5.4180 H   0  0  0  0  0  0  0  0  0  0  0  0
   -6.0980   28.4042    5.8359 H   0  0  0  0  0  0  0  0  0  0  0  0
   -5.6645   27.1658    7.5028 H   0  0  0  0  0  0  0  0  0  0  0  0
   -4.2719   28.2228    5.0718 H   0  0  0  0  0  0  0  0  0  0  0  0
   -0.4666   24.0606    9.5431 H   0  0  0  0  0  0  0  0  0  0  0  0
    1.5568   23.3921    9.2657 H   0  0  0  0  0  0  0  0  0  0  0  0
    2.6856   23.9922    7.3558 H   0  0  0  0  0  0  0  0  0  0  0  0
    2.9904   24.5166    6.1864 H   0  0  0  0  0  0  0  0  0  0  0  0
   -0.1291   25.8757    4.7562 H   0  0  0  0  0  0  0  0  0  0  0  0
    2.3680   27.1672    2.8656 H   0  0  0  0  0  0  0  0  0  0  0  0
   -0.4622   26.7824    3.6028 H   0  0  0  0  0  0  0  0  0  0  0  0
   -0.6581   28.2662    2.0973 H   0  0  0  0  0  0  0  0  0  0  0  0
    1.0800   27.0917    3.0708 H   0  0  0  0  0  0  0  0  0  0  0  0
   -0.4175   28.3338    1.1205 H   0  0  0  0  0  0  0  0  0  0  0  0
    1.4358   28.7137    0.5105 H   0  0  0  0  0  0  0  0  0  0  0  0
   -0.0752   27.4226    2.6901 H   0  0  0  0  0  0  0  0  0  0  0  0
    2.6176   29.3296   -0.0885 H   0  0  0  0  0  0  0  0  0  0  0  0
    1.2383   28.6400    0.8093 H   0  0  0  0  0  0  0  0  0  0  0  0
    5.4114   29.2395    0.2777 H   0  0  0  0  0  0  0  0  0  0  0  0
    3.5713   29.4887   -0.2425 H   0  0  0  0  0  0  0  0  0  0  0  0
    6.0758   28.8612    0.8891 H   0  0  0  0  0  0  0  0  0  0  0  0
    6.5759   26.9799    3.6955 H   0  0  0  0  0  0  0  0  0  0  0  0
    6.7629   26.1708    4.8993 H   0  0  0  0  0  0  0  0  0  0  0  0
    1.7827   26.5228    3.9673 H   0  0  0  0  0  0  0  0  0  0  0  0
    2.6001   25.5317    5.4843 H   0  0  0  0  0  0  0  0  0  0  0  0
    3.6570   27.1545    3.2005 H   0  0  0  0  0  0  0  0  0  0  0  0
    7.6118   28.7955    1.1195 H   0  0  0  0  0  0  0  0  0  0  0  0
    0.0477   26.2604    5.1981 H   0  0  0  0  0  0  0  0  0  0  0  0
  1  2  2  3
  2  3  1  0
  3  4  1  0
  4  5  1  0
  3  6  1  0
  6  7  1  0
  7  8  1  0
  8  9  1  0
  9 10  1  0
 10 11  1  0
 11 12  1  0
 12 13  1  0
 11 14  1  0
 14 15  1  0
 15 16  1  0
 16 17  1  0
 16 18  1  0
 18 19  1  0
 19 20  1  0
 20 21  1  0
 20 22  1  0
 22 23  1  0
 23 24  1  0
 24 25  1  0
 23 26  1  0
 26 27  1  0
  9 28  1  0
 28  2  1  0
 28  6  1  0
  9  7  1  0
 22 15  1  0
  1 29  1  0
  1 30  1  0
  3 31  1  0
  4 32  1  0
  4 33  1  0
  5 34  1  0
  5 35  1  0
  5 36  1  0
  7 37  1  0
  8 38  1  0
  8 39  1  0
 10 40  1  0
 11 41  1  0
 12 42  1  0
 12 43  1  0
 13 44  1  0
 16 45  1  0
 17 46  1  0
 17 47  1  0
 17 48  1  0
 18 49  1  0
 18 50  1  0
 19 51  1  0
 19 52  1  0
 20 53  1  0
 21 54  1  0
 23 55  1  0
 25 56  1  0
 25 57  1  0
 25 58  1  0
 27 59  1  0
 28 60  1  0
M  END
