
     RDKit          2D

 72 79  0  0  0  0  0  0  0  0999 V2000
   23.6065  -23.0907  -12.4638 C   0  0  0  0  0  0  0  0  0  0  0  0
   23.1881  -21.9604  -11.5709 C   0  0  0  0  0  0  0  0  0  0  0  0
   21.7811  -21.8931  -11.0553 C   0  0  0  0  0  0  0  0  0  0  0  0
   22.3284  -22.6968   -9.9131 C   0  0  0  0  0  0  0  0  0  0  0  0
   23.7480  -23.1556   -9.7583 C   0  0  0  0  0  0  0  0  0  0  0  0
   21.2067  -22.9612   -8.9530 C   0  0  0  0  0  0  0  0  0  0  0  0
   19.9661  -22.3209   -9.5018 C   0  0  0  0  0  0  0  0  0  0  0  0
   18.5913  -21.7957   -9.7916 C   0  0  0  0  0  0  0  0  0  0  0  0
   17.2165  -21.2704  -10.0814 C   0  0  0  0  0  0  0  0  0  0  0  0
   18.1296  -22.2595   -8.4419 C   0  0  0  0  0  0  0  0  0  0  0  0
   18.3101  -22.9053   -7.1001 C   0  0  0  0  0  0  0  0  0  0  0  0
   17.7929  -23.5358   -5.3376 C   0  0  0  0  0  0  0  0  0  0  0  0
   17.7175  -24.1237   -3.9596 C   0  0  0  0  0  0  0  0  0  0  0  0
   16.5380  -24.1921   -3.0354 C   0  0  0  0  0  0  0  0  0  0  0  0
   15.1428  -23.6895   -3.2607 C   0  0  0  0  0  0  0  0  0  0  0  0
   14.5825  -22.9943   -4.4660 C   0  0  0  0  0  0  0  0  0  0  0  0
   13.4030  -23.0627   -3.5417 C   0  0  0  0  0  0  0  0  0  0  0  0
   15.2789  -22.6301   -5.7437 C   0  0  0  0  0  0  0  0  0  0  0  0
   16.7077  -22.8711   -6.1316 C   0  0  0  0  0  0  0  0  0  0  0  0
   16.4590  -22.2131   -7.4564 C   0  0  0  0  0  0  0  0  0  0  0  0
   15.0302  -21.9721   -7.0685 C   0  0  0  0  0  0  0  0  0  0  0  0
   15.5292  -21.5228   -8.4098 C   0  0  0  0  0  0  0  0  0  0  0  0
   14.6362  -20.8289   -9.3952 C   0  0  0  0  0  0  0  0  0  0  0  0
   15.4470  -20.5215  -10.6191 O   0  0  0  0  0  0  0  0  0  0  0  0
   16.8412  -21.0254  -10.3902 Sb  0  0  0  0  0  3  0  0  0  0  0  0
   16.8920  -21.6442   -9.0248 C   0  0  0  0  0  0  0  0  0  0  0  0
   14.7469  -24.1777   -1.8988 C   0  0  0  0  0  0  0  0  0  0  0  0
   14.3510  -24.6660   -0.5368 C   0  0  0  0  0  0  0  0  0  0  0  0
   16.1421  -24.6804   -1.6735 C   0  0  0  0  0  0  0  0  0  0  0  0
   20.3211  -21.6608  -10.8011 C   0  0  0  0  0  0  0  0  0  0  0  0
   20.3732  -20.9197  -12.1041 C   0  0  0  0  0  0  0  0  0  0  0  0
   25.0135  -23.1580  -12.9793 H   0  0  0  0  0  0  0  0  0  0  0  0
   22.6178  -24.1538  -12.8411 H   0  0  0  0  0  0  0  0  0  0  0  0
   24.2978  -20.9895  -11.2954 H   0  0  0  0  0  0  0  0  0  0  0  0
   21.7056  -21.1277  -12.3432 H   0  0  0  0  0  0  0  0  0  0  0  0
   24.8860  -22.9045  -10.7027 H   0  0  0  0  0  0  0  0  0  0  0  0
   24.1504  -23.9566   -8.5557 H   0  0  0  0  0  0  0  0  0  0  0  0
   20.4521  -23.4584   -7.7558 H   0  0  0  0  0  0  0  0  0  0  0  0
   22.2586  -23.6886   -8.1693 H   0  0  0  0  0  0  0  0  0  0  0  0
   19.6610  -22.9967   -8.1979 H   0  0  0  0  0  0  0  0  0  0  0  0
   18.8820  -21.2713  -11.1665 H   0  0  0  0  0  0  0  0  0  0  0  0
   15.7612  -20.9080  -10.0538 H   0  0  0  0  0  0  0  0  0  0  0  0
   17.8818  -20.7304  -11.3125 H   0  0  0  0  0  0  0  0  0  0  0  0
   16.3972  -21.7338   -8.9134 H   0  0  0  0  0  0  0  0  0  0  0  0
   19.5727  -22.6684   -8.4597 H   0  0  0  0  0  0  0  0  0  0  0  0
   19.7601  -23.2661   -7.2312 H   0  0  0  0  0  0  0  0  0  0  0  0
   19.0971  -23.6052   -6.0320 H   0  0  0  0  0  0  0  0  0  0  0  0
   19.1463  -24.3647   -4.3475 H   0  0  0  0  0  0  0  0  0  0  0  0
   18.4367  -24.8245   -2.8453 H   0  0  0  0  0  0  0  0  0  0  0  0
   17.6136  -24.8590   -2.2302 H   0  0  0  0  0  0  0  0  0  0  0  0
   13.8226  -23.6218   -2.5520 H   0  0  0  0  0  0  0  0  0  0  0  0
   13.3881  -22.3616   -5.1164 H   0  0  0  0  0  0  0  0  0  0  0  0
   12.2237  -23.1311   -2.6175 H   0  0  0  0  0  0  0  0  0  0  0  0
   12.5616  -22.3567   -4.5633 H   0  0  0  0  0  0  0  0  0  0  0  0
   14.0944  -23.7717   -2.4151 H   0  0  0  0  0  0  0  0  0  0  0  0
   13.8877  -22.1226   -5.9826 H   0  0  0  0  0  0  0  0  0  0  0  0
   16.1581  -23.3001   -4.8034 H   0  0  0  0  0  0  0  0  0  0  0  0
   17.8833  -22.4426   -7.8673 H   0  0  0  0  0  0  0  0  0  0  0  0
   13.5857  -21.5690   -7.0367 H   0  0  0  0  0  0  0  0  0  0  0  0
   13.5931  -20.9986   -8.3307 H   0  0  0  0  0  0  0  0  0  0  0  0
   13.5251  -20.1705  -10.1581 H   0  0  0  0  0  0  0  0  0  0  0  0
   17.8666  -20.8438  -11.4699 H   0  0  0  0  0  0  0  0  0  0  0  0
   15.5916  -21.0615   -9.4930 H   0  0  0  0  0  0  0  0  0  0  0  0
   13.3518  -23.6751   -2.1241 H   0  0  0  0  0  0  0  0  0  0  0  0
   13.9552  -25.1543    0.8250 H   0  0  0  0  0  0  0  0  0  0  0  0
   12.9565  -24.1610   -0.7612 H   0  0  0  0  0  0  0  0  0  0  0  0
   15.7455  -25.1710   -0.3125 H   0  0  0  0  0  0  0  0  0  0  0  0
   16.8488  -25.3811   -0.5510 H   0  0  0  0  0  0  0  0  0  0  0  0
   18.9079  -21.1906  -10.9786 H   0  0  0  0  0  0  0  0  0  0  0  0
   20.4254  -20.1786  -13.4073 H   0  0  0  0  0  0  0  0  0  0  0  0
   18.9100  -20.6107  -11.9870 H   0  0  0  0  0  0  0  0  0  0  0  0
   21.8318  -21.1360  -12.3793 H   0  0  0  0  0  0  0  0  0  0  0  0
  1  2  2  3
  2  3  1  0
  3  4  1  0
  4  5  2  3
  4  6  1  0
  6  7  1  0
  7  8  1  0
  8  9  1  0
  8 10  1  0
 10 11  1  0
 11 12  1  0
 12 13  1  0
 13 14  1  0
 14 15  1  0
 15 16  1  0
 16 17  1  0
 16 18  1  0
 18 19  1  0
 19 20  1  0
 20 21  1  0
 21 22  1  0
 22 23  1  0
 23 24  1  0
 24 25  1  0
 25 26  1  0
 15 27  1  0
 27 28  1  0
 27 29  1  0
  7 30  1  0
 30 31  1  0
 30  3  1  0
 26 10  1  0
 19 12  1  0
 22 20  1  0
 29 12  1  0
 29 14  1  0
 21 18  1  0
 26 22  1  0
  1 32  1  0
  1 33  1  0
  2 34  1  0
  3 35  1  0
  5 36  1  0
  5 37  1  0
  6 38  1  0
  6 39  1  0
  7 40  1  0
  8 41  1  0
  9 42  1  0
  9 43  1  0
  9 44  1  0
 10 45  1  0
 11 46  1  0
 11 47  1  0
 13 48  1  0
 13 49  1  0
 14 50  1  0
 15 51  1  0
 16 52  1  0
 17 53  1  0
 17 54  1  0
 17 55  1  0
 18 56  1  0
 19 57  1  0
 20 58  1  0
 21 59  1  0
 23 60  1  0
 23 61  1  0
 25 62  1  0
 26 63  1  0
 27 64  1  0
 28 65  1  0
 28 66  1  0
 28 67  1  0
 29 68  1  0
 30 69  1  0
 31 70  1  0
 31 71  1  0
 31 72  1  0
M  END
