
     RDKit          2D

 74 78  0  0  0  0  0  0  0  0999 V2000
    2.4856   18.6858   11.3390 C   0  0  0  0  0  0  0  0  0  0  0  0
    2.5504   19.8917   10.4493 C   0  0  0  0  0  0  0  0  0  0  0  0
    2.6153   21.0976    9.5595 C   0  0  0  0  0  0  0  0  0  0  0  0
    2.1939   22.1444    8.5713 C   0  0  0  0  0  0  0  0  0  0  0  0
    3.1499   23.2304    8.1757 C   0  0  0  0  0  0  0  0  0  0  0  0
    1.9612   23.6148    7.3455 C   0  0  0  0  0  0  0  0  0  0  0  0
    0.7724   23.9991    6.5153 C   0  0  0  0  0  0  0  0  0  0  0  0
   -0.6288   23.8374    6.0051 C   0  0  0  0  0  0  0  0  0  0  0  0
   -1.3696   24.6916    5.0193 C   0  0  0  0  0  0  0  0  0  0  0  0
   -0.8921   25.9183    4.3003 C   0  0  0  0  0  0  0  0  0  0  0  0
   -1.9541   26.4727    3.3977 C   0  0  0  0  0  0  0  0  0  0  0  0
   -2.4089   27.5030    2.4070 C   0  0  0  0  0  0  0  0  0  0  0  0
   -1.0726   28.1786    2.4961 C   0  0  0  0  0  0  0  0  0  0  0  0
    0.2637   28.8542    2.5852 C   0  0  0  0  0  0  0  0  0  0  0  0
    1.5999   29.5298    2.6743 C   0  0  0  0  0  0  0  0  0  0  0  0
   -0.1911   29.8845    1.5943 F   0  0  0  0  0  0  0  0  0  0  0  0
   -0.6178   27.1483    3.4868 C   0  0  0  0  0  0  0  0  0  0  0  0
    0.4443   26.5939    4.3895 C   0  0  0  0  0  0  0  0  0  0  0  0
    1.6330   26.2096    5.2196 C   0  0  0  0  0  0  0  0  0  0  0  0
    2.1105   27.4363    4.5006 C   0  0  0  0  0  0  0  0  0  0  0  0
    2.5881   28.6631    3.7815 C   0  0  0  0  0  0  0  0  0  0  0  0
    3.0657   29.8898    3.0625 C   0  0  0  0  0  0  0  0  0  0  0  0
    3.5432   31.1166    2.3434 C   0  0  0  0  0  0  0  0  0  0  0  0
    4.3951   29.7737    3.7473 O   0  0  0  0  0  0  0  0  0  0  0  0
    1.7790   25.0548    6.1657 C   0  0  0  0  0  0  0  0  0  0  0  0
    4.5274   23.2698    8.7683 C   0  0  0  0  0  0  0  0  0  0  0  0
    4.9487   22.2229    9.7566 C   0  0  0  0  0  0  0  0  0  0  0  0
    3.9927   21.1369   10.1522 C   0  0  0  0  0  0  0  0  0  0  0  0
    5.1814   20.7526   10.9823 C   0  0  0  0  0  0  0  0  0  0  0  0
    2.4209   17.4799   12.2288 H   0  0  0  0  0  0  0  0  0  0  0  0
    1.0786   18.4281   10.8872 H   0  0  0  0  0  0  0  0  0  0  0  0
    3.8742   18.7946   11.8958 H   0  0  0  0  0  0  0  0  0  0  0  0
    3.9402   19.9986   11.0037 H   0  0  0  0  0  0  0  0  0  0  0  0
    1.1424   19.6359    9.9999 H   0  0  0  0  0  0  0  0  0  0  0  0
    1.2154   20.6395    9.2759 H   0  0  0  0  0  0  0  0  0  0  0  0
    0.9403   21.3228    8.6308 H   0  0  0  0  0  0  0  0  0  0  0  0
    1.6693   22.4833    8.0758 H   0  0  0  0  0  0  0  0  0  0  0  0
    3.6932   24.4500    7.4918 H   0  0  0  0  0  0  0  0  0  0  0  0
    2.8621   24.7290    6.9016 H   0  0  0  0  0  0  0  0  0  0  0  0
    1.4824   23.0226    7.5814 H   0  0  0  0  0  0  0  0  0  0  0  0
    0.4603   22.7675    7.3128 H   0  0  0  0  0  0  0  0  0  0  0  0
   -0.6550   22.6389    6.9067 H   0  0  0  0  0  0  0  0  0  0  0  0
   -1.8997   23.0412    6.0375 H   0  0  0  0  0  0  0  0  0  0  0  0
   -2.4893   23.7211    5.2529 H   0  0  0  0  0  0  0  0  0  0  0  0
   -2.5584   25.0758    4.1892 H   0  0  0  0  0  0  0  0  0  0  0  0
   -3.1271   25.5535    3.5681 H   0  0  0  0  0  0  0  0  0  0  0  0
   -2.8637   28.5333    1.4162 H   0  0  0  0  0  0  0  0  0  0  0  0
   -3.7452   26.8274    2.3178 H   0  0  0  0  0  0  0  0  0  0  0  0
   -1.5275   29.2089    1.5053 H   0  0  0  0  0  0  0  0  0  0  0  0
    0.7185   27.8240    3.5761 H   0  0  0  0  0  0  0  0  0  0  0  0
    2.7860   30.4353    2.5219 H   0  0  0  0  0  0  0  0  0  0  0  0
    1.1435   30.5628    1.6871 H   0  0  0  0  0  0  0  0  0  0  0  0
    2.3661   28.6910    3.6537 H   0  0  0  0  0  0  0  0  0  0  0  0
    1.2921   27.7325    3.9049 H   0  0  0  0  0  0  0  0  0  0  0  0
    3.0445   26.5189    5.6219 H   0  0  0  0  0  0  0  0  0  0  0  0
    3.4384   27.3230    5.1891 H   0  0  0  0  0  0  0  0  0  0  0  0
    0.7827   27.5496    3.8120 H   0  0  0  0  0  0  0  0  0  0  0  0
    3.9161   28.5494    4.4696 H   0  0  0  0  0  0  0  0  0  0  0  0
    1.2600   28.7767    3.0934 H   0  0  0  0  0  0  0  0  0  0  0  0
    1.8913   30.2994    2.2240 H   0  0  0  0  0  0  0  0  0  0  0  0
    4.0206   32.3433    1.6243 H   0  0  0  0  0  0  0  0  0  0  0  0
    2.2855   31.3749    1.5676 H   0  0  0  0  0  0  0  0  0  0  0  0
    4.8688   31.0070    3.0366 H   0  0  0  0  0  0  0  0  0  0  0  0
    5.5766   30.6835    3.5851 H   0  0  0  0  0  0  0  0  0  0  0  0
    3.1608   25.5998    6.3750 H   0  0  0  0  0  0  0  0  0  0  0  0
    2.6608   24.3152    7.1279 H   0  0  0  0  0  0  0  0  0  0  0  0
    4.5921   24.4756    7.8786 H   0  0  0  0  0  0  0  0  0  0  0  0
    5.9273   23.7278    9.0520 H   0  0  0  0  0  0  0  0  0  0  0  0
    6.2023   23.0446    9.6970 H   0  0  0  0  0  0  0  0  0  0  0  0
    5.9358   21.5852   10.6888 H   0  0  0  0  0  0  0  0  0  0  0  0
    3.6123   19.9051   10.9190 H   0  0  0  0  0  0  0  0  0  0  0  0
    6.3701   20.3683   11.8125 H   0  0  0  0  0  0  0  0  0  0  0  0
    4.4205   20.1177   12.1084 H   0  0  0  0  0  0  0  0  0  0  0  0
    6.2321   21.2938   10.0587 H   0  0  0  0  0  0  0  0  0  0  0  0
  1  2  1  0
  2  3  1  0
  3  4  1  0
  4  5  1  0
  5  6  1  0
  6  7  1  0
  7  8  1  0
  8  9  1  0
  9 10  1  0
 10 11  1  0
 11 12  1  0
 12 13  1  0
 13 14  1  0
 14 15  1  0
 14 16  1  0
 13 17  1  0
 17 18  1  0
 18 19  1  0
 19 20  1  0
 20 21  1  0
 21 22  1  0
 22 23  1  0
 22 24  1  0
 19 25  1  0
  5 26  1  0
 26 27  1  0
 27 28  1  0
 28 29  1  0
 28  3  1  0
 25  7  1  0
 17 10  1  0
 18 10  1  0
 17 11  1  0
  1 30  1  0
  1 31  1  0
  1 32  1  0
  2 33  1  0
  2 34  1  0
  3 35  1  0
  4 36  1  0
  4 37  1  0
  5 38  1  0
  6 39  1  0
  6 40  1  0
  7 41  1  0
  8 42  1  0
  8 43  1  0
  9 44  1  0
  9 45  1  0
 11 46  1  0
 12 47  1  0
 12 48  1  0
 13 49  1  0
 14 50  1  0
 15 51  1  0
 15 52  1  0
 15 53  1  0
 18 54  1  0
 19 55  1  0
 20 56  1  0
 20 57  1  0
 21 58  1  0
 21 59  1  0
 22 60  1  0
 23 61  1  0
 23 62  1  0
 23 63  1  0
 24 64  1  0
 25 65  1  0
 25 66  1  0
 26 67  1  0
 26 68  1  0
 27 69  1  0
 27 70  1  0
 28 71  1  0
 29 72  1  0
 29 73  1  0
 29 74  1  0
M  END
