
     RDKit          2D

 23 24  0  0  0  0  0  0  0  0999 V2000
   -1.7066   26.5302    0.4481 O   0  0  0  0  0  0  0  0  0  0  0  0
   -1.2090   25.4186    1.3238 C   0  0  0  0  0  0  0  0  0  0  0  0
   -2.1628   24.3762    1.8273 O   0  0  0  0  0  0  0  0  0  0  0  0
    0.2425   25.3495    1.6959 C   0  0  0  0  0  0  0  0  0  0  0  0
    0.2351   24.1128    2.5447 C   0  0  0  0  0  0  0  0  0  0  0  0
    0.0081   22.8678    3.3500 C   0  0  0  0  0  0  0  0  0  0  0  0
    1.0060   22.0618    4.1275 C   0  0  0  0  0  0  0  0  0  0  0  0
    2.4776   22.3017    4.2916 C   0  0  0  0  0  0  0  0  0  0  0  0
    3.3147   23.4068    3.7188 C   0  0  0  0  0  0  0  0  0  0  0  0
    2.8868   24.5449    2.8404 C   0  0  0  0  0  0  0  0  0  0  0  0
    1.5163   24.8592    2.3179 C   0  0  0  0  0  0  0  0  0  0  0  0
   -3.6143   24.4454    1.4552 H   0  0  0  0  0  0  0  0  0  0  0  0
    0.7539   26.5622    0.9763 H   0  0  0  0  0  0  0  0  0  0  0  0
   -1.2354   24.0577    2.2537 H   0  0  0  0  0  0  0  0  0  0  0  0
   -1.3625   23.1820    2.8275 H   0  0  0  0  0  0  0  0  0  0  0  0
   -0.8290   21.7627    3.9228 H   0  0  0  0  0  0  0  0  0  0  0  0
    0.4602   20.8566    4.8342 H   0  0  0  0  0  0  0  0  0  0  0  0
    3.2088   21.3046    5.1407 H   0  0  0  0  0  0  0  0  0  0  0  0
    4.3126   22.6008    4.4962 H   0  0  0  0  0  0  0  0  0  0  0  0
    4.6754   24.0261    3.5972 H   0  0  0  0  0  0  0  0  0  0  0  0
    4.3348   24.9320    2.8980 H   0  0  0  0  0  0  0  0  0  0  0  0
    3.1140   25.7899    2.0351 H   0  0  0  0  0  0  0  0  0  0  0  0
    2.1630   26.0376    1.6521 H   0  0  0  0  0  0  0  0  0  0  0  0
  1  2  2  0
  2  3  1  0
  2  4  1  0
  4  5  1  0
  5  6  1  0
  6  7  1  0
  7  8  2  0
  8  9  1  0
  9 10  1  0
 10 11  1  0
 11  4  1  0
 11  5  1  0
  3 12  1  0
  4 13  1  0
  5 14  1  0
  6 15  1  0
  6 16  1  0
  7 17  1  0
  8 18  1  0
  9 19  1  0
  9 20  1  0
 10 21  1  0
 10 22  1  0
 11 23  1  0
M  END
