
     RDKit          2D

 27 26  0  0  0  0  0  0  0  0999 V2000
   -6.4766   22.7523    5.3003 C   0  0  0  0  0  0  0  0  0  0  0  0
   -5.0940   22.1712    5.2754 C   0  0  0  0  0  0  0  0  0  0  0  0
   -4.9004   20.7072    5.0119 C   0  0  0  0  0  0  0  0  0  0  0  0
   -3.9050   23.0539    5.5139 C   0  0  0  0  0  0  0  0  0  0  0  0
   -2.7159   23.9367    5.7524 O   0  0  0  0  0  0  0  0  0  0  0  0
   -2.9095   25.4006    6.0158 C   0  0  0  0  0  0  0  0  0  0  0  0
   -3.1030   26.8645    6.2793 N   0  0  0  0  0  0  0  0  0  0  0  0
   -4.4857   27.4457    6.3042 C   0  0  0  0  0  0  0  0  0  0  0  0
   -5.8682   28.0269    6.3291 C   0  0  0  0  0  0  0  0  0  0  0  0
   -7.2509   28.6081    6.3541 C   0  0  0  0  0  0  0  0  0  0  0  0
   -7.4444   30.0720    6.6175 O   0  0  0  0  0  0  0  0  0  0  0  0
   -8.4399   27.7254    6.1155 O   0  0  0  0  0  0  0  0  0  0  0  0
   -6.6702   24.2162    5.5637 H   0  0  0  0  0  0  0  0  0  0  0  0
   -7.6657   21.8695    5.0618 H   0  0  0  0  0  0  0  0  0  0  0  0
   -4.7069   19.2432    4.7485 H   0  0  0  0  0  0  0  0  0  0  0  0
   -3.4156   20.8817    5.1332 H   0  0  0  0  0  0  0  0  0  0  0  0
   -6.3853   20.5327    4.8907 H   0  0  0  0  0  0  0  0  0  0  0  0
   -3.1246   21.8704    6.0041 H   0  0  0  0  0  0  0  0  0  0  0  0
   -4.6853   24.2375    5.0237 H   0  0  0  0  0  0  0  0  0  0  0  0
   -4.3361   25.2931    5.5652 H   0  0  0  0  0  0  0  0  0  0  0  0
   -1.4828   25.5081    6.4665 H   0  0  0  0  0  0  0  0  0  0  0  0
   -1.9140   27.7473    6.5178 H   0  0  0  0  0  0  0  0  0  0  0  0
   -5.0602   26.0915    6.0114 H   0  0  0  0  0  0  0  0  0  0  0  0
   -3.9111   28.8000    6.5970 H   0  0  0  0  0  0  0  0  0  0  0  0
   -5.2934   29.3821    6.6172 H   0  0  0  0  0  0  0  0  0  0  0  0
   -6.4431   26.6717    6.0410 H   0  0  0  0  0  0  0  0  0  0  0  0
   -9.8225   28.3065    6.1405 H   0  0  0  0  0  0  0  0  0  0  0  0
  1  2  2  3
  2  3  1  0
  2  4  1  0
  4  5  1  0
  5  6  1  0
  6  7  1  0
  7  8  1  0
  8  9  1  0
  9 10  1  0
 10 11  2  0
 10 12  1  0
  1 13  1  0
  1 14  1  0
  3 15  1  0
  3 16  1  0
  3 17  1  0
  4 18  1  0
  4 19  1  0
  6 20  1  0
  6 21  1  0
  7 22  1  0
  8 23  1  0
  8 24  1  0
  9 25  1  0
  9 26  1  0
 12 27  1  0
M  END
