
     RDKit          2D

 63 68  0  0  0  0  0  0  0  0999 V2000
      -nan      -nan      -nan C   0  0  0  0  0  0  0  0  0  0  0  0
      -nan      -nan      -nan C   0  0  0  0  0  0  0  0  0  0  0  0
      -nan      -nan      -nan C   0  0  0  0  0  0  0  0  0  0  0  0
      -nan      -nan      -nan C   0  0  0  0  0  0  0  0  0  0  0  0
      -nan      -nan      -nan C   0  0  0  0  0  0  0  0  0  0  0  0
      -nan      -nan      -nan C   0  0  0  0  0  0  0  0  0  0  0  0
      -nan      -nan      -nan C   0  0  0  0  0  0  0  0  0  0  0  0
      -nan      -nan      -nan C   0  0  0  0  0  0  0  0  0  0  0  0
      -nan      -nan      -nan C   0  0  0  0  0  0  0  0  0  0  0  0
      -nan      -nan      -nan C   0  0  0  0  0  0  0  0  0  0  0  0
      -nan      -nan      -nan C   0  0  0  0  0  0  0  0  0  0  0  0
      -nan      -nan      -nan C   0  0  0  0  0  0  0  0  0  0  0  0
      -nan      -nan      -nan C   0  0  0  0  0  0  0  0  0  0  0  0
      -nan      -nan      -nan C   0  0  0  0  0  0  0  0  0  0  0  0
      -nan      -nan      -nan C   0  0  0  0  0  0  0  0  0  0  0  0
      -nan      -nan      -nan C   0  0  0  0  0  0  0  0  0  0  0  0
      -nan      -nan      -nan C   0  0  0  0  0  0  0  0  0  0  0  0
      -nan      -nan      -nan C   0  0  0  0  0  0  0  0  0  0  0  0
      -nan      -nan      -nan C   0  0  0  0  0  0  0  0  0  0  0  0
    2.6134   25.6307    6.7945 C   0  0  0  0  0  0  0  0  0  0  0  0
    3.9700   25.0380    7.0362 C   0  0  0  0  0  0  0  0  0  0  0  0
    4.9535   23.9221    6.8422 C   0  0  0  0  0  0  0  0  0  0  0  0
    3.9437   23.1746    6.0227 C   0  0  0  0  0  0  0  0  0  0  0  0
    2.5775   23.0852    5.4100 C   0  0  0  0  0  0  0  0  0  0  0  0
    2.9602   24.2905    6.2167 C   0  0  0  0  0  0  0  0  0  0  0  0
      -nan      -nan      -nan H   0  0  0  0  0  0  0  0  0  0  0  0
      -nan      -nan      -nan H   0  0  0  0  0  0  0  0  0  0  0  0
      -nan      -nan      -nan H   0  0  0  0  0  0  0  0  0  0  0  0
      -nan      -nan      -nan H   0  0  0  0  0  0  0  0  0  0  0  0
      -nan      -nan      -nan H   0  0  0  0  0  0  0  0  0  0  0  0
      -nan      -nan      -nan H   0  0  0  0  0  0  0  0  0  0  0  0
      -nan      -nan      -nan H   0  0  0  0  0  0  0  0  0  0  0  0
      -nan      -nan      -nan H   0  0  0  0  0  0  0  0  0  0  0  0
      -nan      -nan      -nan H   0  0  0  0  0  0  0  0  0  0  0  0
      -nan      -nan      -nan H   0  0  0  0  0  0  0  0  0  0  0  0
      -nan      -nan      -nan H   0  0  0  0  0  0  0  0  0  0  0  0
      -nan      -nan      -nan H   0  0  0  0  0  0  0  0  0  0  0  0
      -nan      -nan      -nan H   0  0  0  0  0  0  0  0  0  0  0  0
      -nan      -nan      -nan H   0  0  0  0  0  0  0  0  0  0  0  0
      -nan      -nan      -nan H   0  0  0  0  0  0  0  0  0  0  0  0
      -nan      -nan      -nan H   0  0  0  0  0  0  0  0  0  0  0  0
      -nan      -nan      -nan H   0  0  0  0  0  0  0  0  0  0  0  0
      -nan      -nan      -nan H   0  0  0  0  0  0  0  0  0  0  0  0
      -nan      -nan      -nan H   0  0  0  0  0  0  0  0  0  0  0  0
      -nan      -nan      -nan H   0  0  0  0  0  0  0  0  0  0  0  0
      -nan      -nan      -nan H   0  0  0  0  0  0  0  0  0  0  0  0
      -nan      -nan      -nan H   0  0  0  0  0  0  0  0  0  0  0  0
      -nan      -nan      -nan H   0  0  0  0  0  0  0  0  0  0  0  0
      -nan      -nan      -nan H   0  0  0  0  0  0  0  0  0  0  0  0
      -nan      -nan      -nan H   0  0  0  0  0  0  0  0  0  0  0  0
      -nan      -nan      -nan H   0  0  0  0  0  0  0  0  0  0  0  0
      -nan      -nan      -nan H   0  0  0  0  0  0  0  0  0  0  0  0
      -nan      -nan      -nan H   0  0  0  0  0  0  0  0  0  0  0  0
      -nan      -nan      -nan H   0  0  0  0  0  0  0  0  0  0  0  0
      -nan      -nan      -nan H   0  0  0  0  0  0  0  0  0  0  0  0
      -nan      -nan      -nan H   0  0  0  0  0  0  0  0  0  0  0  0
    1.2077   25.7753    6.2914 H   0  0  0  0  0  0  0  0  0  0  0  0
    4.8332   25.9335    7.8747 H   0  0  0  0  0  0  0  0  0  0  0  0
    5.9369   22.8063    6.6482 H   0  0  0  0  0  0  0  0  0  0  0  0
    5.9633   24.6697    7.6617 H   0  0  0  0  0  0  0  0  0  0  0  0
    4.6323   21.9033    5.6232 H   0  0  0  0  0  0  0  0  0  0  0  0
    2.6818   21.7500    4.7347 H   0  0  0  0  0  0  0  0  0  0  0  0
    1.1750   23.4595    5.0319 H   0  0  0  0  0  0  0  0  0  0  0  0
  1  2  2  3
  2  3  1  0
  3  4  1  0
  4  5  1  0
  5  6  1  0
  6  7  1  0
  7  8  1  0
  8  9  1  0
  9 10  1  0
  5 11  1  0
 11 12  1  0
 12 13  1  0
 13 14  1  0
 14 15  1  0
 15 16  1  0
 16 17  1  0
 16 18  1  0
 18 19  1  0
 19 20  1  0
 20 21  1  0
 21 22  1  0
 22 23  1  0
 23 24  1  0
 24 25  1  0
 12  3  1  0
 18 14  1  0
 25 20  1  0
 13  3  1  0
 25 21  1  0
 25 23  1  0
  1 26  1  0
  1 27  1  0
  2 28  1  0
  4 29  1  0
  4 30  1  0
  5 31  1  0
  6 32  1  0
  6 33  1  0
  7 34  1  0
  7 35  1  0
  8 36  1  0
  8 37  1  0
  9 38  1  0
  9 39  1  0
 10 40  1  0
 10 41  1  0
 10 42  1  0
 11 43  1  0
 11 44  1  0
 12 45  1  0
 13 46  1  0
 14 47  1  0
 15 48  1  0
 15 49  1  0
 16 50  1  0
 17 51  1  0
 17 52  1  0
 17 53  1  0
 18 54  1  0
 19 55  1  0
 19 56  1  0
 20 57  1  0
 21 58  1  0
 22 59  1  0
 22 60  1  0
 23 61  1  0
 24 62  1  0
 24 63  1  0
M  END
