
     RDKit          2D

 20 23  0  0  0  0  0  0  0  0999 V2000
   -4.1917   27.8244    7.7114 O   0  0  0  0  0  0  0  0  0  0  0  0
   -4.3689   26.5518    8.4852 C   0  0  0  0  0  0  0  0  0  0  0  0
   -3.4082   25.8586    7.5650 N   0  0  0  0  0  0  0  0  0  0  0  0
   -2.7745   26.6142    6.4348 C   0  0  0  0  0  0  0  0  0  0  0  0
   -3.1014   28.0630    6.2247 C   0  0  0  0  0  0  0  0  0  0  0  0
   -4.0620   28.7561    7.1448 C   0  0  0  0  0  0  0  0  0  0  0  0
   -5.0227   29.4493    8.0650 C   0  0  0  0  0  0  0  0  0  0  0  0
   -3.9444   28.3357    7.1770 C   0  0  0  0  0  0  0  0  0  0  0  0
   -4.6958   28.0005    8.2751 C   0  0  0  0  0  0  0  0  0  0  0  0
   -5.3295   27.2449    9.4053 N   0  0  0  0  0  0  0  0  0  0  0  0
   -4.7597   29.2073    7.8356 H   0  0  0  0  0  0  0  0  0  0  0  0
   -3.0813   24.4098    7.7751 H   0  0  0  0  0  0  0  0  0  0  0  0
   -1.8138   25.9210    5.5148 H   0  0  0  0  0  0  0  0  0  0  0  0
   -2.9747   29.3702    5.5001 H   0  0  0  0  0  0  0  0  0  0  0  0
   -2.1380   27.8468    5.0955 H   0  0  0  0  0  0  0  0  0  0  0  0
   -4.0033   30.1039    6.4890 H   0  0  0  0  0  0  0  0  0  0  0  0
   -5.7660   30.6860    8.4749 H   0  0  0  0  0  0  0  0  0  0  0  0
   -4.1045   30.4110    6.4849 H   0  0  0  0  0  0  0  0  0  0  0  0
   -3.1789   29.2438    5.8138 H   0  0  0  0  0  0  0  0  0  0  0  0
   -6.2501   27.2089   10.5891 H   0  0  0  0  0  0  0  0  0  0  0  0
  1  2  1  0
  2  3  1  0
  3  4  1  0
  4  5  1  0
  5  6  1  0
  6  7  1  0
  7  8  1  0
  7  9  1  0
  9 10  1  0
  9  2  1  0
 10  2  1  0
  8  4  1  0
  9  6  1  0
  1 11  1  0
  3 12  1  0
  4 13  1  0
  5 14  1  0
  5 15  1  0
  6 16  1  0
  7 17  1  0
  8 18  1  0
  8 19  1  0
 10 20  1  0
M  END
