
     RDKit          2D

 32 33  0  0  0  0  0  0  0  0999 V2000
   16.5633  -19.9943  -13.7011 C   0  0  0  0  0  0  0  0  0  0  0  0
   17.0642  -20.9858  -14.7089 C   0  0  0  0  0  0  0  0  0  0  0  0
   17.5652  -21.9775  -15.7168 C   0  0  0  0  0  0  0  0  0  0  0  0
   18.0662  -22.9691  -16.7246 N   0  0  0  0  0  0  0  0  0  0  0  0
   16.2816  -22.0708  -14.0304 C   0  0  0  0  0  0  0  0  0  0  0  0
   15.4990  -23.1558  -13.3519 C   0  0  0  0  0  0  0  0  0  0  0  0
   15.2166  -21.9170  -12.5549 C   0  0  0  0  0  0  0  0  0  0  0  0
   14.3082  -21.9827  -11.3630 C   0  0  0  0  0  0  0  0  0  0  0  0
   13.6822  -23.2875  -10.9682 C   0  0  0  0  0  0  0  0  0  0  0  0
   13.9647  -24.5264  -11.7654 C   0  0  0  0  0  0  0  0  0  0  0  0
   14.8730  -24.4606  -12.9571 C   0  0  0  0  0  0  0  0  0  0  0  0
   15.5606  -25.1379  -14.1055 O   0  0  0  0  0  0  0  0  0  0  0  0
   16.1866  -23.8331  -14.5003 C   0  0  0  0  0  0  0  0  0  0  0  0
   16.0623  -19.0027  -12.6933 H   0  0  0  0  0  0  0  0  0  0  0  0
   16.9591  -18.8694  -14.6110 H   0  0  0  0  0  0  0  0  0  0  0  0
   16.3528  -20.5921  -13.2175 H   0  0  0  0  0  0  0  0  0  0  0  0
   17.8468  -19.9009  -15.3874 H   0  0  0  0  0  0  0  0  0  0  0  0
   18.3478  -20.8925  -16.3952 H   0  0  0  0  0  0  0  0  0  0  0  0
   16.7825  -23.0625  -15.0383 H   0  0  0  0  0  0  0  0  0  0  0  0
   18.9944  -22.5253  -17.8162 H   0  0  0  0  0  0  0  0  0  0  0  0
   17.6390  -24.4046  -16.6409 H   0  0  0  0  0  0  0  0  0  0  0  0
   16.0155  -21.5439  -13.4948 H   0  0  0  0  0  0  0  0  0  0  0  0
   16.7824  -23.0625  -15.0383 H   0  0  0  0  0  0  0  0  0  0  0  0
   15.2542  -20.4822  -12.1191 H   0  0  0  0  0  0  0  0  0  0  0  0
   16.1381  -21.3528  -13.5954 H   0  0  0  0  0  0  0  0  0  0  0  0
   14.0258  -20.7438  -10.5659 H   0  0  0  0  0  0  0  0  0  0  0  0
   12.7738  -23.3534   -9.7764 H   0  0  0  0  0  0  0  0  0  0  0  0
   13.8141  -25.9896  -12.0596 H   0  0  0  0  0  0  0  0  0  0  0  0
   13.0432  -25.0905  -10.7249 H   0  0  0  0  0  0  0  0  0  0  0  0
   14.5503  -25.9240  -13.0214 H   0  0  0  0  0  0  0  0  0  0  0  0
   16.8125  -22.5284  -14.8950 H   0  0  0  0  0  0  0  0  0  0  0  0
   16.8741  -24.5105  -15.6485 H   0  0  0  0  0  0  0  0  0  0  0  0
  1  2  1  0
  2  3  1  0
  3  4  1  0
  2  5  1  0
  5  6  1  0
  6  7  1  0
  7  8  1  0
  8  9  2  0
  9 10  1  0
 10 11  1  0
 11 12  1  0
 12 13  1  0
 11  6  1  0
 13  6  1  0
  1 14  1  0
  1 15  1  0
  1 16  1  0
  2 17  1  0
  3 18  1  0
  3 19  1  0
  4 20  1  0
  4 21  1  0
  5 22  1  0
  5 23  1  0
  7 24  1  0
  7 25  1  0
  8 26  1  0
  9 27  1  0
 10 28  1  0
 10 29  1  0
 11 30  1  0
 13 31  1  0
 13 32  1  0
M  END
