
     RDKit          2D

 24 27  0  0  0  0  0  0  0  0999 V2000
   -4.2679   26.1412    6.4207 C   0  0  0  0  0  0  0  0  0  0  0  0
   -4.3815   26.1246    4.9252 C   0  0  0  0  0  0  0  0  0  0  0  0
   -4.4952   26.1081    3.4296 C   0  0  0  0  0  0  0  0  0  0  0  0
   -5.8229   26.3514    2.7755 O   0  0  0  0  0  0  0  0  0  0  0  0
   -4.6088   26.0915    1.9340 C   0  0  0  0  0  0  0  0  0  0  0  0
   -3.2809   25.8482    2.5880 C   0  0  0  0  0  0  0  0  0  0  0  0
   -2.2506   25.6741    3.6641 B   0  0  0  0  0  0  0  0  0  0  0  0
   -0.8326   25.4067    4.0739 C   0  0  0  0  0  0  0  0  0  0  0  0
    0.1977   25.2327    5.1500 C   0  0  0  0  0  0  0  0  0  0  0  0
   -0.8534   25.4659    6.1942 C   0  0  0  0  0  0  0  0  0  0  0  0
   -1.8838   25.6399    5.1182 C   0  0  0  0  0  0  0  0  0  0  0  0
   -4.1543   26.1577    7.9163 H   0  0  0  0  0  0  0  0  0  0  0  0
   -3.2979   25.9822    6.4692 H   0  0  0  0  0  0  0  0  0  0  0  0
   -5.7435   26.3873    6.5301 H   0  0  0  0  0  0  0  0  0  0  0  0
   -2.9141   25.8330    4.8169 H   0  0  0  0  0  0  0  0  0  0  0  0
   -5.8489   26.4162    5.0334 H   0  0  0  0  0  0  0  0  0  0  0  0
   -4.7224   26.0750    0.4384 H   0  0  0  0  0  0  0  0  0  0  0  0
   -2.4246   25.6487    1.3727 H   0  0  0  0  0  0  0  0  0  0  0  0
   -0.0839   25.2265    2.7866 H   0  0  0  0  0  0  0  0  0  0  0  0
    1.2281   25.0586    6.2261 H   0  0  0  0  0  0  0  0  0  0  0  0
    1.2490   24.9994    4.1056 H   0  0  0  0  0  0  0  0  0  0  0  0
   -1.9047   25.6991    7.2385 H   0  0  0  0  0  0  0  0  0  0  0  0
    0.1770   25.2918    7.2704 H   0  0  0  0  0  0  0  0  0  0  0  0
   -2.6609   25.8074    5.6984 H   0  0  0  0  0  0  0  0  0  0  0  0
  1  2  1  0
  2  3  1  0
  3  4  1  0
  4  5  1  0
  5  6  1  0
  6  7  1  0
  7  8  1  0
  8  9  1  0
  9 10  1  0
 10 11  1  0
  5  3  1  0
 11  7  1  0
  6  3  1  0
 11  8  1  0
  1 12  1  0
  1 13  1  0
  1 14  1  0
  2 15  1  0
  2 16  1  0
  5 17  1  0
  6 18  1  0
  8 19  1  0
  9 20  1  0
  9 21  1  0
 10 22  1  0
 10 23  1  0
 11 24  1  0
M  END
