
     RDKit          2D

 61 66  0  0  0  0  0  0  0  0999 V2000
   17.6533  -23.3245   -9.8687 C   0  0  0  0  0  0  0  0  0  0  0  0
   17.0921  -24.1689   -8.7632 C   0  0  0  0  0  0  0  0  0  0  0  0
   16.5310  -25.0134   -7.6578 C   0  0  0  0  0  0  0  0  0  0  0  0
   15.9698  -25.8580   -6.5524 C   0  0  0  0  0  0  0  0  0  0  0  0
   15.4087  -26.7025   -5.4469 C   0  0  0  0  0  0  0  0  0  0  0  0
   16.1878  -23.7743   -6.8853 C   0  0  0  0  0  0  0  0  0  0  0  0
   16.3888  -23.4136   -8.3274 N   0  0  0  0  0  0  0  0  0  0  0  0
   16.3992  -22.3337   -9.3684 C   0  0  0  0  0  0  0  0  0  0  0  0
   16.2156  -20.8775   -9.6779 C   0  0  0  0  0  0  0  0  0  0  0  0
   15.8964  -19.5073   -9.1576 C   0  0  0  0  0  0  0  0  0  0  0  0
   15.5430  -18.6581   -7.9726 C   0  0  0  0  0  0  0  0  0  0  0  0
   15.2674  -18.5996   -6.4994 C   0  0  0  0  0  0  0  0  0  0  0  0
   15.1573  -19.3504   -5.2054 C   0  0  0  0  0  0  0  0  0  0  0  0
   15.2475  -20.6719   -4.5016 C   0  0  0  0  0  0  0  0  0  0  0  0
   15.0904  -21.2333   -3.1196 C   0  0  0  0  0  0  0  0  0  0  0  0
   15.4454  -22.1393   -4.2612 C   0  0  0  0  0  0  0  0  0  0  0  0
   15.8004  -23.0451   -5.4028 C   0  0  0  0  0  0  0  0  0  0  0  0
   16.1195  -24.4153   -5.9231 C   0  0  0  0  0  0  0  0  0  0  0  0
   15.6025  -21.5779   -5.6433 C   0  0  0  0  0  0  0  0  0  0  0  0
   15.0596  -17.1264   -6.6901 C   0  0  0  0  0  0  0  0  0  0  0  0
   15.1559  -16.3242   -7.9540 C   0  0  0  0  0  0  0  0  0  0  0  0
   14.8005  -15.2893   -6.9280 C   0  0  0  0  0  0  0  0  0  0  0  0
   15.4837  -16.7972   -9.3392 C   0  0  0  0  0  0  0  0  0  0  0  0
   15.7962  -18.1892   -9.8027 N   0  0  0  0  0  0  0  0  0  0  0  0
   16.0850  -18.3381  -11.2671 C   0  0  0  0  0  0  0  0  0  0  0  0
   18.2734  -22.6366  -11.0485 H   0  0  0  0  0  0  0  0  0  0  0  0
   17.4580  -22.5801   -9.6608 H   0  0  0  0  0  0  0  0  0  0  0  0
   18.1719  -24.5575  -10.5474 H   0  0  0  0  0  0  0  0  0  0  0  0
   16.7264  -22.7680   -8.3712 H   0  0  0  0  0  0  0  0  0  0  0  0
   17.6090  -25.4021   -9.4430 H   0  0  0  0  0  0  0  0  0  0  0  0
   16.8741  -26.2526   -8.4303 H   0  0  0  0  0  0  0  0  0  0  0  0
   16.1795  -26.9665   -7.5409 H   0  0  0  0  0  0  0  0  0  0  0  0
   16.0427  -27.1724   -7.2714 H   0  0  0  0  0  0  0  0  0  0  0  0
   14.8475  -27.5469   -4.3415 H   0  0  0  0  0  0  0  0  0  0  0  0
   15.9263  -27.9356   -6.1263 H   0  0  0  0  0  0  0  0  0  0  0  0
   14.8266  -25.5815   -4.6380 H   0  0  0  0  0  0  0  0  0  0  0  0
   16.2965  -25.1300   -6.2527 H   0  0  0  0  0  0  0  0  0  0  0  0
   16.7437  -24.4703   -9.3311 H   0  0  0  0  0  0  0  0  0  0  0  0
   16.6271  -22.1111  -10.8341 H   0  0  0  0  0  0  0  0  0  0  0  0
   16.7525  -23.4386  -10.3194 H   0  0  0  0  0  0  0  0  0  0  0  0
   16.3024  -20.0415  -10.9203 H   0  0  0  0  0  0  0  0  0  0  0  0
   16.5521  -21.4449  -11.0250 H   0  0  0  0  0  0  0  0  0  0  0  0
   16.0403  -18.8899  -10.5170 H   0  0  0  0  0  0  0  0  0  0  0  0
   15.2402  -17.2408   -7.5861 H   0  0  0  0  0  0  0  0  0  0  0  0
   15.5341  -17.5251   -8.9556 H   0  0  0  0  0  0  0  0  0  0  0  0
   14.8017  -18.3372   -4.1580 H   0  0  0  0  0  0  0  0  0  0  0  0
   14.7947  -21.0344   -1.6625 H   0  0  0  0  0  0  0  0  0  0  0  0
   16.3912  -25.8806   -6.0935 H   0  0  0  0  0  0  0  0  0  0  0  0
   15.9247  -24.8056   -4.4880 H   0  0  0  0  0  0  0  0  0  0  0  0
   16.3493  -24.2022   -7.3900 H   0  0  0  0  0  0  0  0  0  0  0  0
   14.8243  -17.3091   -5.2200 H   0  0  0  0  0  0  0  0  0  0  0  0
   14.7287  -15.8064   -6.0591 H   0  0  0  0  0  0  0  0  0  0  0  0
   15.0517  -14.9767   -8.6045 H   0  0  0  0  0  0  0  0  0  0  0  0
   14.4452  -14.2544   -5.9020 H   0  0  0  0  0  0  0  0  0  0  0  0
   14.8165  -14.2306   -7.9905 H   0  0  0  0  0  0  0  0  0  0  0  0
   14.7414  -16.2140   -5.7483 H   0  0  0  0  0  0  0  0  0  0  0  0
   15.3126  -15.3531   -9.7070 H   0  0  0  0  0  0  0  0  0  0  0  0
   15.6847  -16.4368  -10.7813 H   0  0  0  0  0  0  0  0  0  0  0  0
   16.3738  -18.4869  -12.7315 H   0  0  0  0  0  0  0  0  0  0  0  0
   16.3503  -16.8890  -11.5494 H   0  0  0  0  0  0  0  0  0  0  0  0
   15.8900  -19.8235  -11.3418 H   0  0  0  0  0  0  0  0  0  0  0  0
  1  2  1  0
  2  3  1  0
  3  4  1  0
  4  5  1  0
  3  6  1  0
  6  7  1  0
  7  8  1  0
  8  9  1  0
  9 10  1  0
 10 11  1  0
 11 12  1  0
 12 13  2  0
 13 14  1  0
 14 15  1  0
 15 16  1  0
 16 17  1  0
 17 18  1  0
 17 19  1  0
 12 20  1  0
 20 21  1  0
 21 22  1  0
 21 23  1  0
 23 24  1  0
 24 25  1  0
 17  6  1  0
 24 10  1  0
 16 14  1  0
 19 14  1  0
 19 15  1  0
 19 16  1  0
  1 26  1  0
  1 27  1  0
  1 28  1  0
  2 29  1  0
  2 30  1  0
  3 31  1  0
  4 32  1  0
  4 33  1  0
  5 34  1  0
  5 35  1  0
  5 36  1  0
  6 37  1  0
  7 38  1  0
  8 39  1  0
  8 40  1  0
  9 41  1  0
  9 42  1  0
 10 43  1  0
 11 44  1  0
 11 45  1  0
 13 46  1  0
 15 47  1  0
 18 48  1  0
 18 49  1  0
 18 50  1  0
 20 51  1  0
 20 52  1  0
 21 53  1  0
 22 54  1  0
 22 55  1  0
 22 56  1  0
 23 57  1  0
 23 58  1  0
 25 59  1  0
 25 60  1  0
 25 61  1  0
M  END
