
     RDKit          2D

 88 92  0  0  0  0  0  0  0  0999 V2000
   14.7353  -26.3900   -3.0879 C   0  0  0  0  0  0  0  0  0  0  0  0
   15.4660  -26.3445   -4.3971 C   0  0  0  0  0  0  0  0  0  0  0  0
   15.6755  -25.0328   -5.0940 C   0  0  0  0  0  0  0  0  0  0  0  0
   15.8851  -23.7210   -5.7909 C   0  0  0  0  0  0  0  0  0  0  0  0
   16.0947  -22.4094   -6.4876 C   0  0  0  0  0  0  0  0  0  0  0  0
   16.3043  -21.0977   -7.1844 C   0  0  0  0  0  0  0  0  0  0  0  0
   15.2903  -20.6031   -8.1730 C   0  0  0  0  0  0  0  0  0  0  0  0
   15.4999  -19.2914   -8.8698 C   0  0  0  0  0  0  0  0  0  0  0  0
   14.4859  -18.7968   -9.8583 C   0  0  0  0  0  0  0  0  0  0  0  0
   16.7235  -18.4743   -8.5780 C   0  0  0  0  0  0  0  0  0  0  0  0
   17.7376  -18.9689   -7.5894 C   0  0  0  0  0  0  0  0  0  0  0  0
   18.9611  -18.1518   -7.2978 C   0  0  0  0  0  0  0  0  0  0  0  0
   20.2698  -17.7406   -6.6909 C   0  0  0  0  0  0  0  0  0  0  0  0
   19.6309  -19.0370   -6.2889 C   0  0  0  0  0  0  0  0  0  0  0  0
   20.6449  -19.5315   -5.3003 C   0  0  0  0  0  0  0  0  0  0  0  0
   21.0375  -20.6200   -4.3459 C   0  0  0  0  0  0  0  0  0  0  0  0
   22.1406  -20.9686   -3.3912 C   0  0  0  0  0  0  0  0  0  0  0  0
   23.4384  -20.4141   -2.8829 C   0  0  0  0  0  0  0  0  0  0  0  0
   23.2288  -21.7257   -2.1861 C   0  0  0  0  0  0  0  0  0  0  0  0
   23.0191  -23.0375   -1.4893 I   0  0  0  0  0  0  0  0  0  0  0  0
   24.3234  -19.2158   -3.0589 C   0  0  0  0  0  0  0  0  0  0  0  0
   25.4848  -18.2832   -2.8821 C   0  0  0  0  0  0  0  0  0  0  0  0
   24.3816  -17.9346   -3.8368 C   0  0  0  0  0  0  0  0  0  0  0  0
   23.5858  -17.1699   -4.8527 C   0  0  0  0  0  0  0  0  0  0  0  0
   23.1933  -16.0813   -5.8071 C   0  0  0  0  0  0  0  0  0  0  0  0
   24.3547  -15.1487   -5.6303 C   0  0  0  0  0  0  0  0  0  0  0  0
   25.5162  -14.2160   -5.4535 C   0  0  0  0  0  0  0  0  0  0  0  0
   26.6776  -13.2834   -5.2767 C   0  0  0  0  0  0  0  0  0  0  0  0
   27.8390  -12.3507   -5.0999 C   0  0  0  0  0  0  0  0  0  0  0  0
       nan       nan       nan C   0  0  0  0  0  0  0  0  0  0  0  0
   22.3083  -17.2796   -5.6311 C   0  0  0  0  0  0  0  0  0  0  0  0
   21.5124  -16.5149   -6.6469 C   0  0  0  0  0  0  0  0  0  0  0  0
   21.1469  -18.2122   -5.8078 C   0  0  0  0  0  0  0  0  0  0  0  0
   20.9019  -17.0433   -6.7155 C   0  0  0  0  0  0  0  0  0  0  0  0
   20.6571  -15.8744   -7.6231 C   0  0  0  0  0  0  0  0  0  0  0  0
   21.6481  -14.7499   -7.6817 O   0  0  0  0  0  0  0  0  0  0  0  0
   17.5279  -20.2806   -6.8927 C   0  0  0  0  0  0  0  0  0  0  0  0
   14.5259  -27.7016   -2.3912 H   0  0  0  0  0  0  0  0  0  0  0  0
   14.2141  -25.1237   -2.4756 H   0  0  0  0  0  0  0  0  0  0  0  0
   15.9872  -27.6107   -5.0095 H   0  0  0  0  0  0  0  0  0  0  0  0
   14.3808  -25.2163   -5.8288 H   0  0  0  0  0  0  0  0  0  0  0  0
   16.9702  -24.8493   -4.3592 H   0  0  0  0  0  0  0  0  0  0  0  0
   17.1751  -23.5331   -5.0489 H   0  0  0  0  0  0  0  0  0  0  0  0
   14.5950  -23.9090   -6.5327 H   0  0  0  0  0  0  0  0  0  0  0  0
   14.8030  -22.5958   -7.2272 H   0  0  0  0  0  0  0  0  0  0  0  0
   17.3863  -22.2229   -5.7481 H   0  0  0  0  0  0  0  0  0  0  0  0
   14.0667  -21.4202   -8.4647 H   0  0  0  0  0  0  0  0  0  0  0  0
   13.4719  -18.3023  -10.8468 H   0  0  0  0  0  0  0  0  0  0  0  0
   15.3148  -17.5692  -10.0943 H   0  0  0  0  0  0  0  0  0  0  0  0
   13.6570  -20.0245   -9.6222 H   0  0  0  0  0  0  0  0  0  0  0  0
   16.9331  -17.1627   -9.2748 H   0  0  0  0  0  0  0  0  0  0  0  0
   18.7163  -16.9829   -8.2053 H   0  0  0  0  0  0  0  0  0  0  0  0
   20.0024  -16.5828   -7.6063 H   0  0  0  0  0  0  0  0  0  0  0  0
   21.5731  -17.4633   -6.0021 H   0  0  0  0  0  0  0  0  0  0  0  0
   18.7516  -20.2384   -6.1070 H   0  0  0  0  0  0  0  0  0  0  0  0
   19.4800  -20.4586   -5.4830 H   0  0  0  0  0  0  0  0  0  0  0  0
   19.7407  -21.1817   -4.8490 H   0  0  0  0  0  0  0  0  0  0  0  0
   20.6252  -21.6881   -3.9390 H   0  0  0  0  0  0  0  0  0  0  0  0
   21.3379  -21.8795   -3.3437 H   0  0  0  0  0  0  0  0  0  0  0  0
   22.1784  -21.6285   -2.9456 H   0  0  0  0  0  0  0  0  0  0  0  0
   24.4276  -20.7345   -2.0219 H   0  0  0  0  0  0  0  0  0  0  0  0
   24.3898  -21.5566   -1.5185 H   0  0  0  0  0  0  0  0  0  0  0  0
   22.5365  -21.9913   -2.4791 H   0  0  0  0  0  0  0  0  0  0  0  0
   25.2399  -19.8430   -2.0506 H   0  0  0  0  0  0  0  0  0  0  0  0
   26.2807  -19.0479   -1.8663 H   0  0  0  0  0  0  0  0  0  0  0  0
   26.3699  -17.0849   -3.0581 H   0  0  0  0  0  0  0  0  0  0  0  0
   25.2667  -16.7364   -4.0128 H   0  0  0  0  0  0  0  0  0  0  0  0
   24.8121  -16.3590   -4.5552 H   0  0  0  0  0  0  0  0  0  0  0  0
   22.5301  -15.1905   -6.8152 H   0  0  0  0  0  0  0  0  0  0  0  0
   23.7509  -14.2073   -6.6299 H   0  0  0  0  0  0  0  0  0  0  0  0
   25.0956  -15.9694   -4.6166 H   0  0  0  0  0  0  0  0  0  0  0  0
   24.9140  -13.2762   -6.4554 H   0  0  0  0  0  0  0  0  0  0  0  0
   25.9723  -15.2626   -4.4805 H   0  0  0  0  0  0  0  0  0  0  0  0
   26.0598  -12.3287   -6.2548 H   0  0  0  0  0  0  0  0  0  0  0  0
   29.0005  -11.4181   -4.9231 H   0  0  0  0  0  0  0  0  0  0  0  0
   27.2358  -11.4100   -6.1004 H   0  0  0  0  0  0  0  0  0  0  0  0
   28.5793  -13.1708   -4.0853 H   0  0  0  0  0  0  0  0  0  0  0  0
       nan       nan       nan H   0  0  0  0  0  0  0  0  0  0  0  0
       nan       nan       nan H   0  0  0  0  0  0  0  0  0  0  0  0
       nan       nan       nan H   0  0  0  0  0  0  0  0  0  0  0  0
   21.1419  -15.4132   -7.5951 H   0  0  0  0  0  0  0  0  0  0  0  0
   20.2214  -17.1110   -7.1242 H   0  0  0  0  0  0  0  0  0  0  0  0
   22.4467  -15.3478   -6.7703 H   0  0  0  0  0  0  0  0  0  0  0  0
   19.9161  -18.1524   -6.6633 H   0  0  0  0  0  0  0  0  0  0  0  0
   22.0886  -16.1540   -6.4901 H   0  0  0  0  0  0  0  0  0  0  0  0
   19.6179  -17.6684   -7.1741 H   0  0  0  0  0  0  0  0  0  0  0  0
   19.4212  -15.8300   -8.4720 H   0  0  0  0  0  0  0  0  0  0  0  0
   18.4334  -20.9213   -5.8831 H   0  0  0  0  0  0  0  0  0  0  0  0
  1  2  2  3
  2  3  1  0
  3  4  1  0
  4  5  1  0
  5  6  1  0
  6  7  2  0
  7  8  1  0
  8  9  1  0
  8 10  2  0
 10 11  1  0
 11 12  1  0
 12 13  1  0
 13 14  1  0
 14 15  1  0
 15 16  1  0
 16 17  1  0
 17 18  1  0
 18 19  1  0
 19 20  1  0
 18 21  1  0
 21 22  1  0
 22 23  1  0
 23 24  1  0
 24 25  1  0
 25 26  1  0
 26 27  1  0
 27 28  1  0
 28 29  1  0
 28 30  1  0
 25 31  1  0
 31 32  1  0
 31 33  1  0
 33 34  1  0
 34 35  1  0
 35 36  2  0
 11 37  2  0
 37  6  1  0
 14 12  1  0
 33 15  1  0
 23 21  1  0
 31 24  1  0
  1 38  1  0
  1 39  1  0
  2 40  1  0
  3 41  1  0
  3 42  1  0
  4 43  1  0
  4 44  1  0
  5 45  1  0
  5 46  1  0
  7 47  1  0
  9 48  1  0
  9 49  1  0
  9 50  1  0
 10 51  1  0
 12 52  1  0
 13 53  1  0
 13 54  1  0
 14 55  1  0
 15 56  1  0
 16 57  1  0
 16 58  1  0
 17 59  1  0
 17 60  1  0
 18 61  1  0
 19 62  1  0
 19 63  1  0
 21 64  1  0
 22 65  1  0
 22 66  1  0
 23 67  1  0
 24 68  1  0
 25 69  1  0
 26 70  1  0
 26 71  1  0
 27 72  1  0
 27 73  1  0
 28 74  1  0
 29 75  1  0
 29 76  1  0
 29 77  1  0
 30 78  1  0
 30 79  1  0
 30 80  1  0
 32 81  1  0
 32 82  1  0
 32 83  1  0
 33 84  1  0
 34 85  1  0
 34 86  1  0
 35 87  1  0
 37 88  1  0
M  END
