
     RDKit          2D

 23 23  0  0  0  0  0  0  0  0999 V2000
    4.6474   26.3581    4.2894 C   0  0  0  0  0  0  0  0  0  0  0  0
    3.6130   26.2701    3.2067 O   0  0  0  0  0  0  0  0  0  0  0  0
    2.1566   26.2233    3.5628 C   0  0  0  0  0  0  0  0  0  0  0  0
    1.8030   26.1496    2.1070 O   0  0  0  0  0  0  0  0  0  0  0  0
    0.7003   26.1766    3.9190 C   0  0  0  0  0  0  0  0  0  0  0  0
   -0.7561   26.1299    4.2752 C   0  0  0  0  0  0  0  0  0  0  0  0
   -2.2124   26.0831    4.6312 C   0  0  0  0  0  0  0  0  0  0  0  0
   -2.6344   26.1244    6.0702 O   0  0  0  0  0  0  0  0  0  0  0  0
   -1.1096   26.0532    2.8194 C   0  0  0  0  0  0  0  0  0  0  0  0
   -2.6052   25.9924    2.9174 C   0  0  0  0  0  0  0  0  0  0  0  0
   -1.9399   25.9647    1.5733 O   0  0  0  0  0  0  0  0  0  0  0  0
    5.6817   26.4460    5.3723 H   0  0  0  0  0  0  0  0  0  0  0  0
    3.5628   26.3553    5.3257 H   0  0  0  0  0  0  0  0  0  0  0  0
    5.7319   26.3609    3.2532 H   0  0  0  0  0  0  0  0  0  0  0  0
    2.5103   26.2971    5.0187 H   0  0  0  0  0  0  0  0  0  0  0  0
    2.8873   26.1549    1.0706 H   0  0  0  0  0  0  0  0  0  0  0  0
    0.5739   26.1247    2.8340 H   0  0  0  0  0  0  0  0  0  0  0  0
    1.0538   26.2540    5.3747 H   0  0  0  0  0  0  0  0  0  0  0  0
   -0.4025   26.2065    5.7308 H   0  0  0  0  0  0  0  0  0  0  0  0
   -2.7621   26.0364    4.0559 H   0  0  0  0  0  0  0  0  0  0  0  0
   -0.1697   26.0706    2.2608 H   0  0  0  0  0  0  0  0  0  0  0  0
   -4.0431   25.9122    2.4981 H   0  0  0  0  0  0  0  0  0  0  0  0
   -2.8822   26.0118    3.6647 H   0  0  0  0  0  0  0  0  0  0  0  0
  1  2  1  0
  2  3  1  0
  3  4  1  0
  3  5  1  0
  5  6  1  0
  6  7  1  0
  7  8  2  0
  6  9  1  0
  9 10  1  0
 10 11  1  0
 11  9  1  0
  1 12  1  0
  1 13  1  0
  1 14  1  0
  3 15  1  0
  4 16  1  0
  5 17  1  0
  5 18  1  0
  6 19  1  0
  7 20  1  0
  9 21  1  0
 10 22  1  0
 10 23  1  0
M  END
