
     RDKit          2D

103112  0  0  0  0  0  0  0  0999 V2000
   19.5215  -15.6238  -18.3271 C   0  0  0  0  0  0  0  0  0  0  0  0
   18.6805  -16.5796  -17.5339 C   0  0  0  0  0  0  0  0  0  0  0  0
   18.8366  -18.0583  -17.7320 C   0  0  0  0  0  0  0  0  0  0  0  0
   18.0065  -18.7690  -18.7595 N   0  0  0  0  0  0  0  0  0  0  0  0
   19.8227  -18.8261  -16.9026 O   0  0  0  0  0  0  0  0  0  0  0  0
   19.3967  -19.4266  -15.5957 C   0  0  0  0  0  0  0  0  0  0  0  0
   20.6863  -20.0626  -15.1686 N   0  0  0  0  0  0  0  0  0  0  0  0
   19.4700  -20.1755  -14.2981 C   0  0  0  0  0  0  0  0  0  0  0  0
   18.2537  -20.2883  -13.4275 O   0  0  0  0  0  0  0  0  0  0  0  0
   20.7596  -20.8114  -13.8710 C   0  0  0  0  0  0  0  0  0  0  0  0
   22.1761  -21.2970  -13.7825 C   0  0  0  0  0  0  0  0  0  0  0  0
   21.8724  -21.9422  -12.4628 N   0  0  0  0  0  0  0  0  0  0  0  0
   20.4559  -21.4567  -12.5513 N   0  0  0  0  0  0  0  0  0  0  0  0
   19.2396  -21.5696  -11.6808 C   0  0  0  0  0  0  0  0  0  0  0  0
   20.0265  -22.3691  -10.6850 C   0  0  0  0  0  0  0  0  0  0  0  0
   20.8134  -23.1687   -9.6893 C   0  0  0  0  0  0  0  0  0  0  0  0
   21.6002  -23.9683   -8.6935 C   0  0  0  0  0  0  0  0  0  0  0  0
   22.3871  -24.7678   -7.6978 C   0  0  0  0  0  0  0  0  0  0  0  0
   19.7728  -22.8921   -8.6449 C   0  0  0  0  0  0  0  0  0  0  0  0
   18.7322  -22.6156   -7.6005 C   0  0  0  0  0  0  0  0  0  0  0  0
   17.6917  -22.3390   -6.5562 C   0  0  0  0  0  0  0  0  0  0  0  0
   16.6511  -22.0624   -5.5118 C   0  0  0  0  0  0  0  0  0  0  0  0
   16.8413  -23.2614   -4.6307 C   0  0  0  0  0  0  0  0  0  0  0  0
   15.9922  -23.4345   -3.4063 C   0  0  0  0  0  0  0  0  0  0  0  0
   16.5438  -24.7295   -2.8879 C   0  0  0  0  0  0  0  0  0  0  0  0
   15.8021  -22.2356   -4.2874 C   0  0  0  0  0  0  0  0  0  0  0  0
   20.5494  -23.7087   -7.6549 C   0  0  0  0  0  0  0  0  0  0  0  0
   21.3260  -24.5252   -6.6649 C   0  0  0  0  0  0  0  0  0  0  0  0
   22.4421  -24.8856   -7.6000 C   0  0  0  0  0  0  0  0  0  0  0  0
   22.4587  -25.3836   -6.1852 C   0  0  0  0  0  0  0  0  0  0  0  0
   22.2051  -25.7245   -4.7467 C   0  0  0  0  0  0  0  0  0  0  0  0
   20.9157  -25.0767   -4.3373 C   0  0  0  0  0  0  0  0  0  0  0  0
   21.2019  -25.7101   -3.0081 O   0  0  0  0  0  0  0  0  0  0  0  0
   20.3724  -24.3355   -5.5228 C   0  0  0  0  0  0  0  0  0  0  0  0
   19.2563  -23.9751   -4.5876 C   0  0  0  0  0  0  0  0  0  0  0  0
   18.4527  -20.7700  -12.6765 C   0  0  0  0  0  0  0  0  0  0  0  0
   17.2834  -20.1141  -13.3491 C   0  0  0  0  0  0  0  0  0  0  0  0
   15.8146  -19.8140  -13.3999 C   0  0  0  0  0  0  0  0  0  0  0  0
   15.6093  -20.6059  -12.1427 C   0  0  0  0  0  0  0  0  0  0  0  0
   15.4041  -21.3979  -10.8854 C   0  0  0  0  0  0  0  0  0  0  0  0
   14.7080  -22.0440   -9.7244 C   0  0  0  0  0  0  0  0  0  0  0  0
   13.9196  -21.2531  -10.7258 C   0  0  0  0  0  0  0  0  0  0  0  0
   12.5429  -21.4009  -10.1489 C   0  0  0  0  0  0  0  0  0  0  0  0
   11.1662  -21.5487   -9.5719 C   0  0  0  0  0  0  0  0  0  0  0  0
   17.0781  -20.9060  -12.0919 C   0  0  0  0  0  0  0  0  0  0  0  0
   19.3654  -14.1451  -18.1290 H   0  0  0  0  0  0  0  0  0  0  0  0
   20.5186  -16.1466  -19.3184 H   0  0  0  0  0  0  0  0  0  0  0  0
   17.6835  -16.0568  -16.5427 H   0  0  0  0  0  0  0  0  0  0  0  0
   17.0203  -18.0012  -19.5890 H   0  0  0  0  0  0  0  0  0  0  0  0
   17.9592  -18.9991  -15.5688 H   0  0  0  0  0  0  0  0  0  0  0  0
   17.9420  -21.0348  -12.1644 H   0  0  0  0  0  0  0  0  0  0  0  0
   23.5925  -21.7826  -13.6939 H   0  0  0  0  0  0  0  0  0  0  0  0
   22.4797  -20.6518  -15.1021 H   0  0  0  0  0  0  0  0  0  0  0  0
   22.6593  -22.7418  -11.4671 H   0  0  0  0  0  0  0  0  0  0  0  0
   18.1283  -21.7790  -10.6954 H   0  0  0  0  0  0  0  0  0  0  0  0
   18.6631  -22.7678  -10.2033 H   0  0  0  0  0  0  0  0  0  0  0  0
   21.3035  -21.8692  -11.2927 H   0  0  0  0  0  0  0  0  0  0  0  0
   21.8539  -23.4453  -10.7337 H   0  0  0  0  0  0  0  0  0  0  0  0
   20.5522  -24.6755   -7.8864 H   0  0  0  0  0  0  0  0  0  0  0  0
   22.8766  -23.4388   -9.2771 H   0  0  0  0  0  0  0  0  0  0  0  0
   23.3214  -25.5274   -6.8033 H   0  0  0  0  0  0  0  0  0  0  0  0
   21.3578  -25.2322   -6.7104 H   0  0  0  0  0  0  0  0  0  0  0  0
   23.5390  -24.3933   -8.5828 H   0  0  0  0  0  0  0  0  0  0  0  0
   18.8752  -22.0480   -9.5003 H   0  0  0  0  0  0  0  0  0  0  0  0
   19.2976  -23.5104   -6.5377 H   0  0  0  0  0  0  0  0  0  0  0  0
   18.0348  -21.6801   -8.5431 H   0  0  0  0  0  0  0  0  0  0  0  0
   17.4943  -20.9620   -7.1174 H   0  0  0  0  0  0  0  0  0  0  0  0
   18.0144  -23.7394   -6.1264 H   0  0  0  0  0  0  0  0  0  0  0  0
   16.0996  -20.7674   -6.0302 H   0  0  0  0  0  0  0  0  0  0  0  0
   17.8805  -24.2872   -4.9740 H   0  0  0  0  0  0  0  0  0  0  0  0
   14.9517  -23.1580   -2.3619 H   0  0  0  0  0  0  0  0  0  0  0  0
   17.0955  -26.0246   -2.3696 H   0  0  0  0  0  0  0  0  0  0  0  0
   17.5028  -24.7823   -4.0402 H   0  0  0  0  0  0  0  0  0  0  0  0
   15.5248  -24.5193   -1.8075 H   0  0  0  0  0  0  0  0  0  0  0  0
   14.7629  -21.2098   -3.9441 H   0  0  0  0  0  0  0  0  0  0  0  0
   20.0465  -23.0240   -6.4187 H   0  0  0  0  0  0  0  0  0  0  0  0
   21.2417  -24.5924   -8.6499 H   0  0  0  0  0  0  0  0  0  0  0  0
   22.4482  -24.4000   -9.0192 H   0  0  0  0  0  0  0  0  0  0  0  0
   23.7378  -25.5623   -7.9367 H   0  0  0  0  0  0  0  0  0  0  0  0
   23.7276  -26.1813   -6.1232 H   0  0  0  0  0  0  0  0  0  0  0  0
   23.4981  -26.4764   -4.8603 H   0  0  0  0  0  0  0  0  0  0  0  0
   22.2217  -26.2225   -3.3319 H   0  0  0  0  0  0  0  0  0  0  0  0
   19.7460  -24.6494   -3.5009 H   0  0  0  0  0  0  0  0  0  0  0  0
   20.2482  -25.5204   -1.8659 H   0  0  0  0  0  0  0  0  0  0  0  0
   21.1849  -25.1612   -4.5698 H   0  0  0  0  0  0  0  0  0  0  0  0
   18.0677  -23.5219   -3.7927 H   0  0  0  0  0  0  0  0  0  0  0  0
   19.7789  -24.7085   -3.3880 H   0  0  0  0  0  0  0  0  0  0  0  0
   18.7337  -23.2417   -5.7872 H   0  0  0  0  0  0  0  0  0  0  0  0
   19.2811  -20.1897  -13.7843 H   0  0  0  0  0  0  0  0  0  0  0  0
   17.8618  -19.4268  -14.5504 H   0  0  0  0  0  0  0  0  0  0  0  0
   14.3458  -19.5139  -13.4507 H   0  0  0  0  0  0  0  0  0  0  0  0
   16.0199  -19.0220  -14.6572 H   0  0  0  0  0  0  0  0  0  0  0  0
   14.1765  -20.2115  -12.3463 H   0  0  0  0  0  0  0  0  0  0  0  0
   16.7509  -21.9035  -10.4608 H   0  0  0  0  0  0  0  0  0  0  0  0
   15.8794  -22.6882   -9.0441 H   0  0  0  0  0  0  0  0  0  0  0  0
   13.7346  -22.5521   -8.7024 H   0  0  0  0  0  0  0  0  0  0  0  0
   13.4345  -20.4174  -11.8731 H   0  0  0  0  0  0  0  0  0  0  0  0
   11.9856  -20.5690  -11.2658 H   0  0  0  0  0  0  0  0  0  0  0  0
   12.9283  -22.2446   -8.9700 H   0  0  0  0  0  0  0  0  0  0  0  0
    9.7895  -21.6964   -8.9950 H   0  0  0  0  0  0  0  0  0  0  0  0
   10.6077  -20.7236  -10.6933 H   0  0  0  0  0  0  0  0  0  0  0  0
   11.7247  -22.3737   -8.4506 H   0  0  0  0  0  0  0  0  0  0  0  0
   17.2600  -21.7487  -10.8643 H   0  0  0  0  0  0  0  0  0  0  0  0
  1  2  2  3
  2  3  1  0
  3  4  2  3
  3  5  1  0
  5  6  1  0
  6  7  1  0
  7  8  1  0
  8  9  1  0
  8 10  1  0
 10 11  1  0
 11 12  1  0
 12 13  1  0
 13 14  1  0
 14 15  1  0
 15 16  1  0
 16 17  1  0
 17 18  1  0
 16 19  1  0
 19 20  1  0
 20 21  1  0
 21 22  1  0
 22 23  1  0
 23 24  1  0
 24 25  1  0
 24 26  1  0
 19 27  1  0
 27 28  1  0
 28 29  1  0
 29 30  1  0
 30 31  1  0
 31 32  1  0
 32 33  1  0
 32 34  1  0
 34 35  1  0
 14 36  1  0
 36 37  1  0
 37 38  1  0
 38 39  1  0
 39 40  1  0
 40 41  1  0
 41 42  1  0
 42 43  1  0
 43 44  1  0
 39 45  1  0
  8  6  1  0
 13 10  1  0
 26 22  1  0
 30 28  1  0
 45 36  1  0
 10  7  1  0
 26 23  1  0
 34 28  1  0
 45 37  1  0
 42 40  1  0
  1 46  1  0
  1 47  1  0
  2 48  1  0
  4 49  1  0
  6 50  1  0
  9 51  1  0
 11 52  1  0
 11 53  1  0
 12 54  1  0
 14 55  1  0
 15 56  1  0
 15 57  1  0
 16 58  1  0
 17 59  1  0
 17 60  1  0
 18 61  1  0
 18 62  1  0
 18 63  1  0
 19 64  1  0
 20 65  1  0
 20 66  1  0
 21 67  1  0
 21 68  1  0
 22 69  1  0
 23 70  1  0
 24 71  1  0
 25 72  1  0
 25 73  1  0
 25 74  1  0
 26 75  1  0
 27 76  1  0
 27 77  1  0
 29 78  1  0
 29 79  1  0
 30 80  1  0
 31 81  1  0
 31 82  1  0
 32 83  1  0
 33 84  1  0
 34 85  1  0
 35 86  1  0
 35 87  1  0
 35 88  1  0
 36 89  1  0
 37 90  1  0
 38 91  1  0
 38 92  1  0
 39 93  1  0
 40 94  1  0
 41 95  1  0
 41 96  1  0
 42 97  1  0
 43 98  1  0
 43 99  1  0
 44100  1  0
 44101  1  0
 44102  1  0
 45103  1  0
M  END
