
     RDKit          2D

116117  0  0  0  0  0  0  0  0999 V2000
   22.6677  -24.5013   -7.9105 C   0  0  0  0  0  0  0  0  0  0  0  0
   22.1629  -24.5756   -6.4999 C   0  0  0  0  0  0  0  0  0  0  0  0
   21.6580  -24.6498   -5.0894 C   0  0  0  0  0  0  0  0  0  0  0  0
   21.1531  -24.7240   -3.6789 C   0  0  0  0  0  0  0  0  0  0  0  0
   20.6483  -24.7982   -2.2683 C   0  0  0  0  0  0  0  0  0  0  0  0
   20.1658  -23.6342   -3.9749 C   0  0  0  0  0  0  0  0  0  0  0  0
   19.1785  -22.5445   -4.2709 C   0  0  0  0  0  0  0  0  0  0  0  0
   18.1912  -21.4547   -4.5670 C   0  0  0  0  0  0  0  0  0  0  0  0
   17.2039  -20.3649   -4.8630 C   0  0  0  0  0  0  0  0  0  0  0  0
   16.2166  -19.2752   -5.1591 C   0  0  0  0  0  0  0  0  0  0  0  0
   15.2293  -18.1854   -5.4551 C   0  0  0  0  0  0  0  0  0  0  0  0
   14.2420  -17.0956   -5.7511 C   0  0  0  0  0  0  0  0  0  0  0  0
   17.0370  -18.8532   -6.3418 N   0  0  0  0  0  0  0  0  0  0  0  0
   16.7351  -17.5611   -7.0414 O   0  0  0  0  0  0  0  0  0  0  0  0
   15.3962  -19.6971   -3.9763 O   0  0  0  0  0  0  0  0  0  0  0  0
   14.2739  -18.8270   -3.4932 O   0  0  0  0  0  0  0  0  0  0  0  0
   18.2708  -20.9953   -3.1413 C   0  0  0  0  0  0  0  0  0  0  0  0
   17.7360  -20.3487   -1.8978 C   0  0  0  0  0  0  0  0  0  0  0  0
   18.4143  -20.1674   -0.5722 C   0  0  0  0  0  0  0  0  0  0  0  0
   19.7946  -20.5878   -0.1627 C   0  0  0  0  0  0  0  0  0  0  0  0
   19.2599  -19.9413    1.0808 C   0  0  0  0  0  0  0  0  0  0  0  0
   18.7252  -19.2948    2.3241 C   0  0  0  0  0  0  0  0  0  0  0  0
   18.1905  -18.6483    3.5676 C   0  0  0  0  0  0  0  0  0  0  0  0
   17.6557  -18.0017    4.8109 C   0  0  0  0  0  0  0  0  0  0  0  0
   17.1210  -17.3552    6.0544 C   0  0  0  0  0  0  0  0  0  0  0  0
   16.5863  -16.7087    7.2979 C   0  0  0  0  0  0  0  0  0  0  0  0
   17.9470  -16.1348    5.7750 C   0  0  0  0  0  0  0  0  0  0  0  0
   18.7732  -14.9143    5.4956 C   0  0  0  0  0  0  0  0  0  0  0  0
   19.5992  -13.6939    5.2162 C   0  0  0  0  0  0  0  0  0  0  0  0
   20.4253  -12.4734    4.9368 C   0  0  0  0  0  0  0  0  0  0  0  0
   19.0996  -13.0657    6.4833 C   0  0  0  0  0  0  0  0  0  0  0  0
   20.8378  -21.2934   -0.9775 C   0  0  0  0  0  0  0  0  0  0  0  0
   20.7582  -21.7528   -2.4032 C   0  0  0  0  0  0  0  0  0  0  0  0
   19.6157  -21.6201   -3.3661 C   0  0  0  0  0  0  0  0  0  0  0  0
   19.7813  -23.5889   -2.5257 C   0  0  0  0  0  0  0  0  0  0  0  0
   20.0088  -24.2988   -2.2435 Br  0  0  0  0  0  0  0  0  0  0  0  0
   19.3967  -23.5437   -1.0766 C   0  0  0  0  0  0  0  0  0  0  0  0
   19.0122  -23.4984    0.3726 C   0  0  0  0  0  0  0  0  0  0  0  0
   18.4308  -23.2275    1.7286 C   0  0  0  0  0  0  0  0  0  0  0  0
   19.0935  -24.1486    2.7096 C   0  0  0  0  0  0  0  0  0  0  0  0
   18.2021  -23.4713    3.7079 O   0  0  0  0  0  0  0  0  0  0  0  0
   20.0845  -24.9887    1.9599 C   0  0  0  0  0  0  0  0  0  0  0  0
   20.0342  -24.5868    0.5156 C   0  0  0  0  0  0  0  0  0  0  0  0
   21.0920  -25.6373    0.3493 C   0  0  0  0  0  0  0  0  0  0  0  0
   23.1726  -24.4271   -9.3210 H   0  0  0  0  0  0  0  0  0  0  0  0
   22.7200  -23.0054   -7.8131 H   0  0  0  0  0  0  0  0  0  0  0  0
   22.6155  -25.9973   -8.0079 H   0  0  0  0  0  0  0  0  0  0  0  0
   21.4121  -23.2926   -6.7011 H   0  0  0  0  0  0  0  0  0  0  0  0
   22.9136  -25.8585   -6.2987 H   0  0  0  0  0  0  0  0  0  0  0  0
   21.6945  -23.1537   -5.1920 H   0  0  0  0  0  0  0  0  0  0  0  0
   21.6832  -26.1479   -5.1592 H   0  0  0  0  0  0  0  0  0  0  0  0
   22.1404  -25.8138   -3.3828 H   0  0  0  0  0  0  0  0  0  0  0  0
   20.4360  -25.3336   -0.8833 H   0  0  0  0  0  0  0  0  0  0  0  0
   21.3711  -26.0987   -2.0780 H   0  0  0  0  0  0  0  0  0  0  0  0
   19.7925  -23.6107   -1.9404 H   0  0  0  0  0  0  0  0  0  0  0  0
   20.4271  -23.5463   -5.4494 H   0  0  0  0  0  0  0  0  0  0  0  0
   19.0103  -22.5436   -2.7803 H   0  0  0  0  0  0  0  0  0  0  0  0
   19.4692  -22.6791   -5.7363 H   0  0  0  0  0  0  0  0  0  0  0  0
   18.1116  -21.9141   -5.9927 H   0  0  0  0  0  0  0  0  0  0  0  0
   17.2207  -20.9737   -6.2338 H   0  0  0  0  0  0  0  0  0  0  0  0
   17.1870  -19.7561   -3.4922 H   0  0  0  0  0  0  0  0  0  0  0  0
   14.0973  -18.4541   -4.5082 H   0  0  0  0  0  0  0  0  0  0  0  0
   15.8834  -17.3893   -6.5452 H   0  0  0  0  0  0  0  0  0  0  0  0
   13.2547  -16.0059   -6.0472 H   0  0  0  0  0  0  0  0  0  0  0  0
   14.7549  -16.3126   -4.5791 H   0  0  0  0  0  0  0  0  0  0  0  0
   13.7291  -17.8787   -6.9232 H   0  0  0  0  0  0  0  0  0  0  0  0
   18.1874  -19.5961   -6.9538 H   0  0  0  0  0  0  0  0  0  0  0  0
   17.5555  -17.1391   -8.2242 H   0  0  0  0  0  0  0  0  0  0  0  0
   13.4535  -19.2490   -2.3105 H   0  0  0  0  0  0  0  0  0  0  0  0
   16.8722  -20.5089   -3.3809 H   0  0  0  0  0  0  0  0  0  0  0  0
   16.3383  -19.8126   -1.9925 H   0  0  0  0  0  0  0  0  0  0  0  0
   17.4717  -19.4629    0.3582 H   0  0  0  0  0  0  0  0  0  0  0  0
   20.5711  -20.4631    1.1147 H   0  0  0  0  0  0  0  0  0  0  0  0
   20.2676  -19.9949    2.1906 H   0  0  0  0  0  0  0  0  0  0  0  0
   17.9196  -19.5591    0.5263 H   0  0  0  0  0  0  0  0  0  0  0  0
   19.9344  -19.5209    3.1824 H   0  0  0  0  0  0  0  0  0  0  0  0
   17.4411  -18.9875    1.6122 H   0  0  0  0  0  0  0  0  0  0  0  0
   16.8961  -18.3658    2.8641 H   0  0  0  0  0  0  0  0  0  0  0  0
   19.4848  -18.9307    4.2710 H   0  0  0  0  0  0  0  0  0  0  0  0
   18.9508  -18.2823    5.5139 H   0  0  0  0  0  0  0  0  0  0  0  0
   16.4355  -17.8021    3.9618 H   0  0  0  0  0  0  0  0  0  0  0  0
   16.2949  -18.5757    6.3338 H   0  0  0  0  0  0  0  0  0  0  0  0
   16.0516  -16.0622    8.5412 H   0  0  0  0  0  0  0  0  0  0  0  0
   17.8646  -17.0290    8.0141 H   0  0  0  0  0  0  0  0  0  0  0  0
   15.2522  -16.3120    6.7384 H   0  0  0  0  0  0  0  0  0  0  0  0
   17.5023  -15.3367    6.9646 H   0  0  0  0  0  0  0  0  0  0  0  0
   18.5932  -16.6353    4.5173 H   0  0  0  0  0  0  0  0  0  0  0  0
   18.2556  -14.2767    6.7508 H   0  0  0  0  0  0  0  0  0  0  0  0
   19.1861  -15.6959    4.2838 H   0  0  0  0  0  0  0  0  0  0  0  0
   20.0989  -14.3221    3.9490 H   0  0  0  0  0  0  0  0  0  0  0  0
   21.2515  -11.2530    4.6573 H   0  0  0  0  0  0  0  0  0  0  0  0
   19.4875  -12.0920    3.8299 H   0  0  0  0  0  0  0  0  0  0  0  0
   21.4569  -12.7032    6.0012 H   0  0  0  0  0  0  0  0  0  0  0  0
   18.6000  -12.4374    7.7505 H   0  0  0  0  0  0  0  0  0  0  0  0
   19.8629  -11.7799    6.3632 H   0  0  0  0  0  0  0  0  0  0  0  0
   18.2146  -14.1982    6.9123 H   0  0  0  0  0  0  0  0  0  0  0  0
   21.3616  -21.0302    0.4032 H   0  0  0  0  0  0  0  0  0  0  0  0
   22.2327  -21.7589   -0.6817 H   0  0  0  0  0  0  0  0  0  0  0  0
   22.1568  -22.2392   -2.1636 H   0  0  0  0  0  0  0  0  0  0  0  0
   21.2929  -22.3993   -3.6467 H   0  0  0  0  0  0  0  0  0  0  0  0
   20.7649  -22.3173   -4.0319 H   0  0  0  0  0  0  0  0  0  0  0  0
   19.2541  -21.9612   -4.7814 H   0  0  0  0  0  0  0  0  0  0  0  0
   19.1420  -22.2767   -2.1798 H   0  0  0  0  0  0  0  0  0  0  0  0
   20.6867  -24.0779   -0.5283 H   0  0  0  0  0  0  0  0  0  0  0  0
   18.0499  -22.9999   -1.4510 H   0  0  0  0  0  0  0  0  0  0  0  0
   18.2160  -22.4898   -0.4013 H   0  0  0  0  0  0  0  0  0  0  0  0
   17.4727  -22.1435    1.3322 H   0  0  0  0  0  0  0  0  0  0  0  0
   17.8807  -22.9937    3.1044 H   0  0  0  0  0  0  0  0  0  0  0  0
   19.5699  -24.9281    3.8992 H   0  0  0  0  0  0  0  0  0  0  0  0
   18.2524  -23.8732    5.1522 H   0  0  0  0  0  0  0  0  0  0  0  0
   20.3537  -25.5926    3.3063 H   0  0  0  0  0  0  0  0  0  0  0  0
   21.1436  -26.0096    1.6661 H   0  0  0  0  0  0  0  0  0  0  0  0
   19.8269  -24.7314    1.9941 H   0  0  0  0  0  0  0  0  0  0  0  0
   22.1498  -26.6877    0.1830 H   0  0  0  0  0  0  0  0  0  0  0  0
   21.1565  -26.0611    1.7868 H   0  0  0  0  0  0  0  0  0  0  0  0
   21.1571  -25.3394   -1.1194 H   0  0  0  0  0  0  0  0  0  0  0  0
  1  2  1  0
  2  3  1  0
  3  4  1  0
  4  5  1  0
  4  6  1  0
  6  7  1  0
  7  8  1  0
  8  9  1  0
  9 10  1  0
 10 11  1  0
 11 12  1  0
 10 13  1  0
 13 14  1  0
 10 15  1  0
 15 16  1  0
  8 17  1  0
 17 18  1  0
 18 19  2  0
 19 20  1  0
 20 21  1  0
 21 22  1  0
 22 23  1  0
 23 24  1  0
 24 25  1  0
 25 26  1  0
 25 27  1  0
 27 28  1  0
 28 29  1  0
 29 30  1  0
 29 31  1  0
 20 32  1  0
 32 33  1  0
 33 34  1  0
  6 35  1  0
 35 36  1  0
 35 37  1  0
 37 38  1  0
 38 39  1  0
 39 40  1  0
 40 41  1  0
 40 42  1  0
 42 43  1  0
 43 44  1  0
 34 17  1  0
 43 38  1  0
  1 45  1  0
  1 46  1  0
  1 47  1  0
  2 48  1  0
  2 49  1  0
  3 50  1  0
  3 51  1  0
  4 52  1  0
  5 53  1  0
  5 54  1  0
  5 55  1  0
  6 56  1  0
  7 57  1  0
  7 58  1  0
  8 59  1  0
  9 60  1  0
  9 61  1  0
 11 62  1  0
 11 63  1  0
 12 64  1  0
 12 65  1  0
 12 66  1  0
 13 67  1  0
 14 68  1  0
 16 69  1  0
 17 70  1  0
 18 71  1  0
 19 72  1  0
 20 73  1  0
 21 74  1  0
 21 75  1  0
 22 76  1  0
 22 77  1  0
 23 78  1  0
 23 79  1  0
 24 80  1  0
 24 81  1  0
 25 82  1  0
 26 83  1  0
 26 84  1  0
 26 85  1  0
 27 86  1  0
 27 87  1  0
 28 88  1  0
 28 89  1  0
 29 90  1  0
 30 91  1  0
 30 92  1  0
 30 93  1  0
 31 94  1  0
 31 95  1  0
 31 96  1  0
 32 97  1  0
 32 98  1  0
 33 99  1  0
 33100  1  0
 34101  1  0
 34102  1  0
 35103  1  0
 37104  1  0
 37105  1  0
 38106  1  0
 39107  1  0
 39108  1  0
 40109  1  0
 41110  1  0
 42111  1  0
 42112  1  0
 43113  1  0
 44114  1  0
 44115  1  0
 44116  1  0
M  END
