
     RDKit          2D

 21 21  0  0  0  0  0  0  0  0999 V2000
   -3.7481   14.4572   -7.5047 C   0  0  0  0  0  0  0  0  0  0  0  0
   -4.1161   14.9861   -6.1502 C   0  0  0  0  0  0  0  0  0  0  0  0
   -3.1876   14.7859   -4.9892 C   0  0  0  0  0  0  0  0  0  0  0  0
   -1.9865   14.3493   -4.2039 O   0  0  0  0  0  0  0  0  0  0  0  0
   -1.8930   14.6628   -2.7400 C   0  0  0  0  0  0  0  0  0  0  0  0
   -0.5965   13.9336   -2.9336 I   0  0  0  0  0  0  0  0  0  0  0  0
   -3.0006   15.4129   -2.0614 C   0  0  0  0  0  0  0  0  0  0  0  0
   -4.2017   15.8495   -2.8467 C   0  0  0  0  0  0  0  0  0  0  0  0
   -4.2952   15.5360   -4.3106 C   0  0  0  0  0  0  0  0  0  0  0  0
   -5.5916   16.2652   -4.1170 O   0  0  0  0  0  0  0  0  0  0  0  0
   -4.6765   14.6573   -8.6657 H   0  0  0  0  0  0  0  0  0  0  0  0
   -2.4516   13.7279   -7.6982 H   0  0  0  0  0  0  0  0  0  0  0  0
   -4.9862   15.4458   -6.1403 H   0  0  0  0  0  0  0  0  0  0  0  0
   -2.4024   14.1053   -6.0710 H   0  0  0  0  0  0  0  0  0  0  0  0
   -1.3491   14.7231   -1.3434 H   0  0  0  0  0  0  0  0  0  0  0  0
   -2.0721   15.2127   -0.9004 H   0  0  0  0  0  0  0  0  0  0  0  0
   -3.7857   16.0936   -0.9796 H   0  0  0  0  0  0  0  0  0  0  0  0
   -4.5697   16.3785   -1.4922 H   0  0  0  0  0  0  0  0  0  0  0  0
   -5.5306   16.4698   -3.1616 H   0  0  0  0  0  0  0  0  0  0  0  0
   -4.7470   15.5568   -5.1847 H   0  0  0  0  0  0  0  0  0  0  0  0
   -6.5201   16.4654   -5.2780 H   0  0  0  0  0  0  0  0  0  0  0  0
  1  2  2  3
  2  3  1  0
  3  4  1  0
  4  5  1  0
  5  6  1  0
  5  7  1  0
  7  8  1  0
  8  9  1  0
  9 10  1  0
  9  3  1  0
  1 11  1  0
  1 12  1  0
  2 13  1  0
  3 14  1  0
  5 15  1  0
  7 16  1  0
  7 17  1  0
  8 18  1  0
  8 19  1  0
  9 20  1  0
 10 21  1  0
M  END
