
     RDKit          2D

 67 66  0  0  0  0  0  0  0  0999 V2000
   18.0726  -18.9000  -15.6853 C   0  0  0  0  0  0  0  0  0  0  0  0
   18.9787  -18.5505  -14.5422 C   0  0  0  0  0  0  0  0  0  0  0  0
   18.7703  -19.1846  -13.1989 C   0  0  0  0  0  0  0  0  0  0  0  0
   18.5618  -19.8188  -11.8556 C   0  0  0  0  0  0  0  0  0  0  0  0
   18.3534  -20.4529  -10.5123 C   0  0  0  0  0  0  0  0  0  0  0  0
   17.2115  -21.4021  -10.3000 C   0  0  0  0  0  0  0  0  0  0  0  0
   17.0032  -22.0362   -8.9567 C   0  0  0  0  0  0  0  0  0  0  0  0
   16.1221  -20.8914   -8.5530 N   0  0  0  0  0  0  0  0  0  0  0  0
   16.7948  -22.6704   -7.6134 C   0  0  0  0  0  0  0  0  0  0  0  0
   16.5864  -23.3045   -6.2701 C   0  0  0  0  0  0  0  0  0  0  0  0
   16.3780  -23.9385   -4.9268 C   0  0  0  0  0  0  0  0  0  0  0  0
   16.1696  -24.5726   -3.5835 C   0  0  0  0  0  0  0  0  0  0  0  0
   15.9612  -25.2067   -2.2402 C   0  0  0  0  0  0  0  0  0  0  0  0
   15.7528  -25.8408   -0.8968 C   0  0  0  0  0  0  0  0  0  0  0  0
   15.5444  -26.4749    0.4465 C   0  0  0  0  0  0  0  0  0  0  0  0
   15.3360  -27.1090    1.7898 O   0  0  0  0  0  0  0  0  0  0  0  0
   14.2414  -25.7456    0.5886 O   0  0  0  0  0  0  0  0  0  0  0  0
   16.8474  -27.2042    0.3044 O   0  0  0  0  0  0  0  0  0  0  0  0
   17.7642  -26.8859   -0.8394 C   0  0  0  0  0  0  0  0  0  0  0  0
   15.4981  -22.7930   -4.5226 O   0  0  0  0  0  0  0  0  0  0  0  0
   15.4015  -22.3943   -3.0798 C   0  0  0  0  0  0  0  0  0  0  0  0
   15.3049  -21.9956   -1.6369 O   0  0  0  0  0  0  0  0  0  0  0  0
   16.0882  -22.7424   -0.5984 O   0  0  0  0  0  0  0  0  0  0  0  0
   15.9916  -22.3437    0.8444 O   0  0  0  0  0  0  0  0  0  0  0  0
   14.0687  -21.7592   -3.3445 O   0  0  0  0  0  0  0  0  0  0  0  0
   13.3185  -21.0964   -2.2273 C   0  0  0  0  0  0  0  0  0  0  0  0
   14.4250  -21.4460   -1.2769 C   0  0  0  0  0  0  0  0  0  0  0  0
   15.5315  -21.7957   -0.3264 F   0  0  0  0  0  0  0  0  0  0  0  0
   12.2120  -20.7467   -3.1778 C   0  0  0  0  0  0  0  0  0  0  0  0
   11.1054  -20.3969   -4.1281 O   0  0  0  0  0  0  0  0  0  0  0  0
    9.9159  -19.6232   -3.6421 Se  0  0  0  0  0  2  0  0  0  0  0  0
    8.8093  -19.2735   -4.5926 Cl  0  0  0  0  0  0  0  0  0  0  0  0
   18.2812  -18.2658  -17.0286 H   0  0  0  0  0  0  0  0  0  0  0  0
   16.9581  -19.8837  -15.4852 H   0  0  0  0  0  0  0  0  0  0  0  0
   20.0933  -17.5667  -14.7423 H   0  0  0  0  0  0  0  0  0  0  0  0
   17.5944  -19.9430  -13.7394 H   0  0  0  0  0  0  0  0  0  0  0  0
   19.9461  -18.4263  -12.6584 H   0  0  0  0  0  0  0  0  0  0  0  0
   19.7535  -19.0804  -11.3221 H   0  0  0  0  0  0  0  0  0  0  0  0
   17.3702  -20.5572  -12.3890 H   0  0  0  0  0  0  0  0  0  0  0  0
   19.2869  -20.1377   -9.3813 H   0  0  0  0  0  0  0  0  0  0  0  0
   16.2781  -21.7172  -11.4310 H   0  0  0  0  0  0  0  0  0  0  0  0
   17.8842  -23.1810   -9.3605 H   0  0  0  0  0  0  0  0  0  0  0  0
   15.4130  -20.7164   -7.2428 H   0  0  0  0  0  0  0  0  0  0  0  0
   15.8755  -19.7616   -9.5084 H   0  0  0  0  0  0  0  0  0  0  0  0
   15.8970  -21.6100   -7.0479 H   0  0  0  0  0  0  0  0  0  0  0  0
   17.6737  -23.8165   -8.0181 H   0  0  0  0  0  0  0  0  0  0  0  0
   17.4822  -24.4402   -6.6673 H   0  0  0  0  0  0  0  0  0  0  0  0
   15.6907  -22.1687   -5.8730 H   0  0  0  0  0  0  0  0  0  0  0  0
   17.2579  -25.0841   -5.3311 H   0  0  0  0  0  0  0  0  0  0  0  0
   17.0489  -25.7186   -3.9880 H   0  0  0  0  0  0  0  0  0  0  0  0
   15.2740  -23.7301   -2.7243 H   0  0  0  0  0  0  0  0  0  0  0  0
   16.8420  -26.3517   -2.6440 H   0  0  0  0  0  0  0  0  0  0  0  0
   15.0804  -24.0617   -1.8363 H   0  0  0  0  0  0  0  0  0  0  0  0
   16.6359  -26.9844   -1.2996 H   0  0  0  0  0  0  0  0  0  0  0  0
   14.8697  -24.6972   -0.4940 H   0  0  0  0  0  0  0  0  0  0  0  0
   15.6430  -27.7978    2.0480 H   0  0  0  0  0  0  0  0  0  0  0  0
   13.4503  -26.1865    1.7843 H   0  0  0  0  0  0  0  0  0  0  0  0
   18.6810  -26.5675   -1.9832 H   0  0  0  0  0  0  0  0  0  0  0  0
   18.7407  -27.9099   -0.3418 H   0  0  0  0  0  0  0  0  0  0  0  0
   17.2579  -26.2628   -1.2134 H   0  0  0  0  0  0  0  0  0  0  0  0
   16.7127  -22.9760   -2.6411 H   0  0  0  0  0  0  0  0  0  0  0  0
   16.5208  -22.7214    2.1962 H   0  0  0  0  0  0  0  0  0  0  0  0
   12.5685  -20.4335   -1.1102 H   0  0  0  0  0  0  0  0  0  0  0  0
   13.6947  -20.7462   -0.1692 H   0  0  0  0  0  0  0  0  0  0  0  0
   15.5894  -22.2281   -1.8086 H   0  0  0  0  0  0  0  0  0  0  0  0
   12.9542  -21.4243   -4.2912 H   0  0  0  0  0  0  0  0  0  0  0  0
   11.4697  -20.0689   -2.0642 H   0  0  0  0  0  0  0  0  0  0  0  0
  1  2  2  3
  2  3  1  0
  3  4  1  0
  4  5  1  0
  5  6  2  3
  6  7  1  0
  7  8  1  0
  7  9  1  0
  9 10  1  0
 10 11  1  0
 11 12  1  0
 12 13  1  0
 13 14  1  0
 14 15  1  0
 15 16  1  0
 15 17  1  0
 15 18  1  0
 18 19  1  0
 11 20  1  0
 20 21  1  0
 21 22  1  0
 22 23  1  0
 23 24  1  0
 21 25  1  0
 25 26  1  0
 26 27  1  0
 27 28  1  0
 26 29  1  0
 29 30  1  0
 30 31  1  0
 31 32  1  0
  1 33  1  0
  1 34  1  0
  2 35  1  0
  3 36  1  0
  3 37  1  0
  4 38  1  0
  4 39  1  0
  5 40  1  0
  6 41  1  0
  7 42  1  6
  8 43  1  0
  8 44  1  0
  9 45  1  0
  9 46  1  0
 10 47  1  0
 10 48  1  0
 11 49  1  6
 12 50  1  0
 12 51  1  0
 13 52  1  0
 13 53  1  0
 14 54  1  0
 14 55  1  0
 16 56  1  0
 17 57  1  0
 19 58  1  0
 19 59  1  0
 19 60  1  0
 21 61  1  1
 24 62  1  0
 26 63  1  6
 27 64  1  0
 27 65  1  0
 29 66  1  0
 29 67  1  0
M  END
