
     RDKit          2D

 92 95  0  0  0  0  0  0  0  0999 V2000
   22.1494  -18.7561  -17.4462 C   0  0  0  0  0  0  0  0  0  0  0  0
   21.5878  -17.4352  -17.0106 C   0  0  0  0  0  0  0  0  0  0  0  0
   22.5087  -16.3422  -16.5552 C   0  0  0  0  0  0  0  0  0  0  0  0
   20.1054  -17.2072  -17.0303 C   0  0  0  0  0  0  0  0  0  0  0  0
   18.6230  -16.9791  -17.0501 O   0  0  0  0  0  0  0  0  0  0  0  0
   17.7992  -17.2960  -15.8373 O   0  0  0  0  0  0  0  0  0  0  0  0
   16.3167  -17.0679  -15.8571 C   0  0  0  0  0  0  0  0  0  0  0  0
   16.4368  -16.4042  -17.1969 C   0  0  0  0  0  0  0  0  0  0  0  0
   16.1967  -17.7316  -14.5173 C   0  0  0  0  0  0  0  0  0  0  0  0
   16.0767  -18.3954  -13.1775 O   0  0  0  0  0  0  0  0  0  0  0  0
   17.2472  -19.1336  -12.5987 C   0  0  0  0  0  0  0  0  0  0  0  0
   16.6485  -19.5968  -11.3038 C   0  0  0  0  0  0  0  0  0  0  0  0
   16.5285  -20.2606   -9.9640 C   0  0  0  0  0  0  0  0  0  0  0  0
   16.4085  -20.9244   -8.6242 C   0  0  0  0  0  0  0  0  0  0  0  0
   15.1061  -19.7957   -9.8610 C   0  0  0  0  0  0  0  0  0  0  0  0
   15.2262  -19.1317  -11.2007 N   0  0  0  0  0  0  0  0  0  0  0  0
   13.6837  -19.3307   -9.7581 C   0  0  0  0  0  0  0  0  0  0  0  0
   12.3060  -19.1208   -9.2031 C   0  0  0  0  0  0  0  0  0  0  0  0
   13.3185  -19.9036   -8.4208 C   0  0  0  0  0  0  0  0  0  0  0  0
   12.9534  -20.4766   -7.0835 C   0  0  0  0  0  0  0  0  0  0  0  0
   14.3310  -20.6865   -7.6385 C   0  0  0  0  0  0  0  0  0  0  0  0
   14.9383  -21.4938   -6.5297 C   0  0  0  0  0  0  0  0  0  0  0  0
   15.5455  -22.3011   -5.4208 O   0  0  0  0  0  0  0  0  0  0  0  0
   14.7163  -22.6840   -4.2309 C   0  0  0  0  0  0  0  0  0  0  0  0
   13.8871  -23.0668   -3.0411 O   0  0  0  0  0  0  0  0  0  0  0  0
   14.4942  -23.8742   -1.9322 C   0  0  0  0  0  0  0  0  0  0  0  0
   18.0686  -19.9436  -11.6400 C   0  0  0  0  0  0  0  0  0  0  0  0
   18.4418  -20.7278  -10.4170 N   0  0  0  0  0  0  0  0  0  0  0  0
   19.3591  -20.0180  -12.4010 C   0  0  0  0  0  0  0  0  0  0  0  0
   20.6496  -20.0925  -13.1619 C   0  0  0  0  0  0  0  0  0  0  0  0
   21.9401  -20.1669  -13.9229 C   0  0  0  0  0  0  0  0  0  0  0  0
   23.2306  -20.2413  -14.6839 C   0  0  0  0  0  0  0  0  0  0  0  0
   21.2553  -20.9041  -12.0554 O   0  0  0  0  0  0  0  0  0  0  0  0
   22.6764  -21.3724  -12.1601 C   0  0  0  0  0  0  0  0  0  0  0  0
   22.8116  -20.6677  -13.4773 C   0  0  0  0  0  0  0  0  0  0  0  0
   22.5414  -22.0771  -10.8429 C   0  0  0  0  0  0  0  0  0  0  0  0
   23.9625  -22.5453  -10.9475 C   0  0  0  0  0  0  0  0  0  0  0  0
   24.0976  -21.8406  -12.2647 C   0  0  0  0  0  0  0  0  0  0  0  0
   23.6318  -18.9842  -17.4265 H   0  0  0  0  0  0  0  0  0  0  0  0
   21.2285  -19.8491  -17.9016 H   0  0  0  0  0  0  0  0  0  0  0  0
   23.3789  -15.4041  -15.7723 H   0  0  0  0  0  0  0  0  0  0  0  0
   22.4121  -16.8480  -15.1463 H   0  0  0  0  0  0  0  0  0  0  0  0
   22.6053  -15.8365  -17.9640 H   0  0  0  0  0  0  0  0  0  0  0  0
   20.0094  -17.7088  -15.6200 H   0  0  0  0  0  0  0  0  0  0  0  0
   20.2015  -16.7056  -18.4407 H   0  0  0  0  0  0  0  0  0  0  0  0
   14.8343  -16.8398  -15.8769 H   0  0  0  0  0  0  0  0  0  0  0  0
   16.5569  -15.7405  -18.5367 H   0  0  0  0  0  0  0  0  0  0  0  0
   17.8605  -16.8657  -17.2980 H   0  0  0  0  0  0  0  0  0  0  0  0
   15.0845  -15.7958  -17.4230 H   0  0  0  0  0  0  0  0  0  0  0  0
   17.2431  -18.7291  -14.9177 H   0  0  0  0  0  0  0  0  0  0  0  0
   15.1504  -16.7342  -14.1169 H   0  0  0  0  0  0  0  0  0  0  0  0
   18.1217  -18.8324  -13.7797 H   0  0  0  0  0  0  0  0  0  0  0  0
   15.9847  -19.2256  -11.5424 H   0  0  0  0  0  0  0  0  0  0  0  0
   17.8796  -20.8723   -9.7397 H   0  0  0  0  0  0  0  0  0  0  0  0
   16.1164  -21.5261   -7.2816 H   0  0  0  0  0  0  0  0  0  0  0  0
   14.9837  -20.5397   -8.3563 H   0  0  0  0  0  0  0  0  0  0  0  0
   17.8294  -21.3934   -8.7295 H   0  0  0  0  0  0  0  0  0  0  0  0
   14.9861  -20.4596   -8.5214 H   0  0  0  0  0  0  0  0  0  0  0  0
   14.9778  -19.5782  -12.6110 H   0  0  0  0  0  0  0  0  0  0  0  0
   15.6669  -17.7242  -11.4744 H   0  0  0  0  0  0  0  0  0  0  0  0
   13.3826  -18.5600  -11.0092 H   0  0  0  0  0  0  0  0  0  0  0  0
   11.6988  -18.3135  -10.3120 H   0  0  0  0  0  0  0  0  0  0  0  0
   11.1393  -19.1913   -8.2631 H   0  0  0  0  0  0  0  0  0  0  0  0
   11.5309  -20.0116   -6.9805 H   0  0  0  0  0  0  0  0  0  0  0  0
   12.9079  -21.1638   -5.7509 H   0  0  0  0  0  0  0  0  0  0  0  0
   15.4978  -20.6160   -8.5785 H   0  0  0  0  0  0  0  0  0  0  0  0
   16.3028  -21.6392   -7.1354 H   0  0  0  0  0  0  0  0  0  0  0  0
   13.7218  -21.5452   -5.6535 H   0  0  0  0  0  0  0  0  0  0  0  0
   15.8962  -23.3948   -3.6373 H   0  0  0  0  0  0  0  0  0  0  0  0
   13.5363  -21.9731   -4.8246 H   0  0  0  0  0  0  0  0  0  0  0  0
   15.1014  -24.6814   -0.8233 H   0  0  0  0  0  0  0  0  0  0  0  0
   13.1835  -23.8583   -1.2030 H   0  0  0  0  0  0  0  0  0  0  0  0
   15.8050  -23.8900   -2.6615 H   0  0  0  0  0  0  0  0  0  0  0  0
   19.8202  -21.3051  -10.2879 H   0  0  0  0  0  0  0  0  0  0  0  0
   17.5673  -21.0290   -9.2360 H   0  0  0  0  0  0  0  0  0  0  0  0
   19.9629  -20.8347  -11.2972 H   0  0  0  0  0  0  0  0  0  0  0  0
   18.9171  -19.2165  -13.5894 H   0  0  0  0  0  0  0  0  0  0  0  0
   20.0440  -19.2808  -14.2685 H   0  0  0  0  0  0  0  0  0  0  0  0
   23.0812  -20.9175  -13.3028 H   0  0  0  0  0  0  0  0  0  0  0  0
   21.3340  -19.3564  -15.0300 H   0  0  0  0  0  0  0  0  0  0  0  0
   24.5211  -20.3158  -15.4448 H   0  0  0  0  0  0  0  0  0  0  0  0
   22.7853  -19.4488  -15.8771 H   0  0  0  0  0  0  0  0  0  0  0  0
   24.1320  -21.0429  -13.7923 H   0  0  0  0  0  0  0  0  0  0  0  0
   23.4472  -20.1778  -14.7447 H   0  0  0  0  0  0  0  0  0  0  0  0
   24.2326  -21.1365  -13.5824 H   0  0  0  0  0  0  0  0  0  0  0  0
   21.6206  -19.9228  -14.0031 H   0  0  0  0  0  0  0  0  0  0  0  0
   22.4062  -22.7818   -9.5256 H   0  0  0  0  0  0  0  0  0  0  0  0
   21.1201  -21.6088  -10.7382 H   0  0  0  0  0  0  0  0  0  0  0  0
   25.3837  -23.0135  -11.0523 H   0  0  0  0  0  0  0  0  0  0  0  0
   23.8273  -23.2500   -9.6303 H   0  0  0  0  0  0  0  0  0  0  0  0
   24.5727  -21.2701  -13.5682 H   0  0  0  0  0  0  0  0  0  0  0  0
   25.5189  -22.3088  -12.3695 H   0  0  0  0  0  0  0  0  0  0  0  0
  1  2  2  3
  2  3  1  0
  2  4  1  0
  4  5  1  0
  5  6  1  0
  6  7  1  0
  7  8  1  0
  7  9  1  0
  9 10  1  0
 10 11  1  0
 11 12  1  0
 12 13  1  0
 13 14  1  0
 13 15  1  0
 15 16  1  0
 15 17  1  0
 17 18  1  0
 18 19  1  0
 19 20  1  0
 20 21  1  0
 21 22  1  0
 22 23  1  0
 23 24  1  0
 24 25  1  0
 25 26  1  0
 12 27  1  0
 27 28  1  0
 27 29  1  0
 29 30  1  0
 30 31  1  0
 31 32  1  0
 30 33  1  0
 33 34  1  0
 34 35  1  0
 34 36  1  0
 36 37  1  0
 37 38  1  0
 27 11  1  0
 38 34  1  0
 19 17  1  0
 21 19  1  0
  1 39  1  0
  1 40  1  0
  3 41  1  0
  3 42  1  0
  3 43  1  0
  4 44  1  0
  4 45  1  0
  7 46  1  0
  8 47  1  0
  8 48  1  0
  8 49  1  0
  9 50  1  0
  9 51  1  0
 11 52  1  0
 12 53  1  0
 13 54  1  0
 14 55  1  0
 14 56  1  0
 14 57  1  0
 15 58  1  0
 16 59  1  0
 16 60  1  0
 17 61  1  0
 18 62  1  0
 18 63  1  0
 20 64  1  0
 20 65  1  0
 21 66  1  0
 22 67  1  0
 22 68  1  0
 24 69  1  0
 24 70  1  0
 26 71  1  0
 26 72  1  0
 26 73  1  0
 28 74  1  0
 28 75  1  0
 29 76  1  0
 29 77  1  0
 30 78  1  0
 31 79  1  0
 31 80  1  0
 32 81  1  0
 32 82  1  0
 32 83  1  0
 35 84  1  0
 35 85  1  0
 35 86  1  0
 36 87  1  0
 36 88  1  0
 37 89  1  0
 37 90  1  0
 38 91  1  0
 38 92  1  0
M  END
