
     RDKit          2D

 37 40  0  0  0  0  0  0  0  0999 V2000
   18.9470  -24.8927   -5.1845 C   0  0  0  0  0  0  0  0  0  0  0  0
   17.8528  -23.9634   -5.6194 C   0  0  0  0  0  0  0  0  0  0  0  0
   17.1958  -24.7697   -4.5386 C   0  0  0  0  0  0  0  0  0  0  0  0
   15.7916  -24.6711   -4.0206 C   0  0  0  0  0  0  0  0  0  0  0  0
   14.4447  -24.7390   -3.3639 C   0  0  0  0  0  0  0  0  0  0  0  0
   14.6974  -23.7418   -4.4555 C   0  0  0  0  0  0  0  0  0  0  0  0
   14.7373  -22.6816   -5.5159 C   0  0  0  0  0  0  0  0  0  0  0  0
   14.5633  -21.5821   -6.5213 C   0  0  0  0  0  0  0  0  0  0  0  0
   15.1234  -20.7206   -7.6141 C   0  0  0  0  0  0  0  0  0  0  0  0
   15.6833  -19.8590   -8.7068 O   0  0  0  0  0  0  0  0  0  0  0  0
   16.4411  -21.4273   -7.4959 N   0  0  0  0  0  0  0  0  0  0  0  0
   17.7689  -21.3178   -8.1851 C   0  0  0  0  0  0  0  0  0  0  0  0
   19.0967  -21.2083   -8.8743 C   0  0  0  0  0  0  0  0  0  0  0  0
   20.2247  -22.1140   -8.4773 O   0  0  0  0  0  0  0  0  0  0  0  0
   19.2966  -20.1933   -9.9603 C   0  0  0  0  0  0  0  0  0  0  0  0
   20.6244  -20.0838  -10.6495 O   0  0  0  0  0  0  0  0  0  0  0  0
   15.8811  -22.2888   -6.4032 C   0  0  0  0  0  0  0  0  0  0  0  0
   17.2677  -22.8593   -6.4493 C   0  0  0  0  0  0  0  0  0  0  0  0
   20.0412  -25.8220   -4.7495 H   0  0  0  0  0  0  0  0  0  0  0  0
   18.4801  -25.4342   -4.8319 H   0  0  0  0  0  0  0  0  0  0  0  0
   19.9664  -23.9802   -5.7994 H   0  0  0  0  0  0  0  0  0  0  0  0
   19.0931  -23.7006   -6.4211 H   0  0  0  0  0  0  0  0  0  0  0  0
   17.1560  -25.8299   -3.4782 H   0  0  0  0  0  0  0  0  0  0  0  0
   17.9041  -25.1326   -4.4917 H   0  0  0  0  0  0  0  0  0  0  0  0
   16.1754  -25.7854   -3.0925 H   0  0  0  0  0  0  0  0  0  0  0  0
   14.6892  -25.8462   -2.3819 H   0  0  0  0  0  0  0  0  0  0  0  0
   13.0128  -24.4225   -3.0483 H   0  0  0  0  0  0  0  0  0  0  0  0
   13.2730  -23.3204   -4.2463 H   0  0  0  0  0  0  0  0  0  0  0  0
   13.3070  -22.4187   -5.1482 H   0  0  0  0  0  0  0  0  0  0  0  0
   13.1455  -21.1225   -6.3526 H   0  0  0  0  0  0  0  0  0  0  0  0
   13.8055  -20.0139   -7.7322 H   0  0  0  0  0  0  0  0  0  0  0  0
   14.8222  -18.8158   -9.3551 H   0  0  0  0  0  0  0  0  0  0  0  0
   18.3302  -22.6250   -7.7094 H   0  0  0  0  0  0  0  0  0  0  0  0
   17.3665  -19.9874   -8.7491 H   0  0  0  0  0  0  0  0  0  0  0  0
   18.1686  -19.2876  -10.3573 H   0  0  0  0  0  0  0  0  0  0  0  0
   18.6719  -22.9579   -6.9672 H   0  0  0  0  0  0  0  0  0  0  0  0
   17.3075  -21.7991   -7.5096 H   0  0  0  0  0  0  0  0  0  0  0  0
  1  2  1  0
  2  3  1  0
  3  4  1  0
  4  5  1  0
  5  6  1  0
  6  7  1  0
  7  8  1  0
  8  9  1  0
  9 10  1  0
  9 11  1  0
 11 12  1  0
 12 13  1  0
 13 14  2  0
 13 15  1  0
 15 16  2  0
 11 17  1  0
 17 18  1  0
 18  2  1  0
  6  4  1  0
 17  7  1  0
 17  8  1  0
  1 19  1  0
  1 20  1  0
  1 21  1  0
  2 22  1  0
  3 23  1  0
  3 24  1  0
  4 25  1  0
  5 26  1  0
  5 27  1  0
  6 28  1  0
  7 29  1  0
  8 30  1  0
  9 31  1  0
 10 32  1  0
 12 33  1  0
 12 34  1  0
 15 35  1  0
 18 36  1  0
 18 37  1  0
M  END
