
     RDKit          2D

 91104  0  0  0  0  0  0  0  0999 V2000
   18.2758  -21.7288   -7.8235 C   0  0  0  0  0  0  0  0  0  0  0  0
   18.4629  -21.6159   -9.3075 C   0  0  0  0  0  0  0  0  0  0  0  0
   17.2580  -22.0740  -10.0745 C   0  0  0  0  0  0  0  0  0  0  0  0
   15.9098  -22.6185   -9.7057 C   0  0  0  0  0  0  0  0  0  0  0  0
   15.5539  -22.7219  -11.1592 C   0  0  0  0  0  0  0  0  0  0  0  0
   16.9021  -22.1774  -11.5280 C   0  0  0  0  0  0  0  0  0  0  0  0
   17.6037  -21.8655  -12.8166 C   0  0  0  0  0  0  0  0  0  0  0  0
   18.9518  -21.3211  -13.1854 C   0  0  0  0  0  0  0  0  0  0  0  0
   18.7750  -21.3525  -14.6746 C   0  0  0  0  0  0  0  0  0  0  0  0
   19.0341  -21.2114  -16.1453 C   0  0  0  0  0  0  0  0  0  0  0  0
   20.4173  -20.6581  -16.3212 C   0  0  0  0  0  0  0  0  0  0  0  0
   21.1705  -20.3942  -14.9794 C   0  0  0  0  0  0  0  0  0  0  0  0
   19.8843  -20.8891  -15.5716 C   0  0  0  0  0  0  0  0  0  0  0  0
   18.8598  -21.2688  -16.5992 C   0  0  0  0  0  0  0  0  0  0  0  0
   17.8352  -21.6486  -17.6269 C   0  0  0  0  0  0  0  0  0  0  0  0
   16.8107  -22.0283  -18.6546 C   0  0  0  0  0  0  0  0  0  0  0  0
   17.8584  -21.5872  -19.6333 C   0  0  0  0  0  0  0  0  0  0  0  0
   18.6920  -21.2254  -20.8268 C   0  0  0  0  0  0  0  0  0  0  0  0
   19.9375  -20.7491  -20.1399 C   0  0  0  0  0  0  0  0  0  0  0  0
   21.1831  -20.2728  -19.4530 C   0  0  0  0  0  0  0  0  0  0  0  0
   21.2731  -20.3053  -17.9560 C   0  0  0  0  0  0  0  0  0  0  0  0
   22.4286  -19.7965  -18.7661 C   0  0  0  0  0  0  0  0  0  0  0  0
   23.5840  -19.2878  -19.5761 C   0  0  0  0  0  0  0  0  0  0  0  0
   24.5440  -18.9471  -18.4752 C   0  0  0  0  0  0  0  0  0  0  0  0
   22.3385  -19.7641  -20.2631 C   0  0  0  0  0  0  0  0  0  0  0  0
   17.3072  -21.7699  -21.0163 Al  0  0  0  0  0  3  0  0  0  0  0  0
   15.9187  -22.3240  -20.8924 C   0  0  0  0  0  0  0  0  0  0  0  0
   14.5874  -22.8634  -20.4606 C   0  0  0  0  0  0  0  0  0  0  0  0
   13.6416  -23.2670  -19.3685 C   0  0  0  0  0  0  0  0  0  0  0  0
   12.6958  -23.6707  -18.2765 C   0  0  0  0  0  0  0  0  0  0  0  0
   14.6661  -22.8873  -18.3408 C   0  0  0  0  0  0  0  0  0  0  0  0
   15.6119  -22.4837  -19.4328 C   0  0  0  0  0  0  0  0  0  0  0  0
   21.1464  -20.4432  -13.4646 C   0  0  0  0  0  0  0  0  0  0  0  0
   22.4919  -19.9199  -13.0573 C   0  0  0  0  0  0  0  0  0  0  0  0
   23.8814  -19.3658  -13.1681 C   0  0  0  0  0  0  0  0  0  0  0  0
   22.8478  -19.8165  -11.6038 N   0  0  0  0  0  0  0  0  0  0  0  0
   21.8581  -20.2364  -10.5576 C   0  0  0  0  0  0  0  0  0  0  0  0
   19.8110  -21.0715   -9.6763 C   0  0  0  0  0  0  0  0  0  0  0  0
   20.5127  -20.7596  -10.9649 C   0  0  0  0  0  0  0  0  0  0  0  0
   21.5022  -20.3398  -12.0111 C   0  0  0  0  0  0  0  0  0  0  0  0
   20.1568  -20.8630  -12.4184 C   0  0  0  0  0  0  0  0  0  0  0  0
   19.3788  -21.3153   -6.8949 H   0  0  0  0  0  0  0  0  0  0  0  0
   16.9856  -22.2551   -7.2681 H   0  0  0  0  0  0  0  0  0  0  0  0
   17.0708  -22.1869   -8.5905 H   0  0  0  0  0  0  0  0  0  0  0  0
   14.5617  -23.1629   -9.3368 H   0  0  0  0  0  0  0  0  0  0  0  0
   16.2657  -22.5151   -8.2522 H   0  0  0  0  0  0  0  0  0  0  0  0
   15.1980  -22.8253  -12.6127 H   0  0  0  0  0  0  0  0  0  0  0  0
   14.2058  -23.2663  -10.7903 H   0  0  0  0  0  0  0  0  0  0  0  0
   15.9284  -22.5355  -12.6114 H   0  0  0  0  0  0  0  0  0  0  0  0
   16.3128  -22.3626  -13.3968 H   0  0  0  0  0  0  0  0  0  0  0  0
   17.6089  -21.8245  -14.3160 H   0  0  0  0  0  0  0  0  0  0  0  0
   19.4677  -21.0803  -14.5732 H   0  0  0  0  0  0  0  0  0  0  0  0
   17.4328  -21.8741  -15.0945 H   0  0  0  0  0  0  0  0  0  0  0  0
   17.8609  -21.6555  -16.9677 H   0  0  0  0  0  0  0  0  0  0  0  0
   21.3631  -20.2545  -17.4132 H   0  0  0  0  0  0  0  0  0  0  0  0
   22.3745  -19.8971  -15.7231 H   0  0  0  0  0  0  0  0  0  0  0  0
   20.3316  -20.6748  -16.9872 H   0  0  0  0  0  0  0  0  0  0  0  0
   19.6703  -20.9061  -17.8082 H   0  0  0  0  0  0  0  0  0  0  0  0
   17.7995  -21.7240  -15.6409 H   0  0  0  0  0  0  0  0  0  0  0  0
   19.0011  -21.1657  -18.4379 H   0  0  0  0  0  0  0  0  0  0  0  0
   16.8891  -22.0515  -16.5349 H   0  0  0  0  0  0  0  0  0  0  0  0
   16.1197  -22.3361  -17.3594 H   0  0  0  0  0  0  0  0  0  0  0  0
   18.8829  -21.2074  -18.6056 H   0  0  0  0  0  0  0  0  0  0  0  0
   19.0929  -21.0291  -22.2587 H   0  0  0  0  0  0  0  0  0  0  0  0
   20.5665  -20.4714  -21.4730 H   0  0  0  0  0  0  0  0  0  0  0  0
   19.6286  -20.9034  -18.6802 H   0  0  0  0  0  0  0  0  0  0  0  0
   19.8936  -20.8749  -17.8067 H   0  0  0  0  0  0  0  0  0  0  0  0
   21.9828  -20.0760  -16.6546 H   0  0  0  0  0  0  0  0  0  0  0  0
   24.4060  -18.8974  -20.7686 H   0  0  0  0  0  0  0  0  0  0  0  0
   25.5041  -18.6064  -17.3742 H   0  0  0  0  0  0  0  0  0  0  0  0
   25.5454  -18.4842  -19.4916 H   0  0  0  0  0  0  0  0  0  0  0  0
   23.5427  -19.4100  -17.4588 H   0  0  0  0  0  0  0  0  0  0  0  0
   22.2483  -19.7317  -21.7600 H   0  0  0  0  0  0  0  0  0  0  0  0
   15.6458  -22.3939  -22.3657 H   0  0  0  0  0  0  0  0  0  0  0  0
   13.8426  -23.1257  -21.7359 H   0  0  0  0  0  0  0  0  0  0  0  0
   12.6171  -23.6468  -20.3962 H   0  0  0  0  0  0  0  0  0  0  0  0
   11.7500  -24.0743  -17.1844 H   0  0  0  0  0  0  0  0  0  0  0  0
   11.6714  -24.0506  -19.3042 H   0  0  0  0  0  0  0  0  0  0  0  0
   13.5973  -23.3428  -17.1233 H   0  0  0  0  0  0  0  0  0  0  0  0
   15.5678  -22.5596  -17.1876 H   0  0  0  0  0  0  0  0  0  0  0  0
   13.8523  -23.2416  -17.1317 H   0  0  0  0  0  0  0  0  0  0  0  0
   21.1273  -20.4117  -14.9641 H   0  0  0  0  0  0  0  0  0  0  0  0
   22.6185  -19.8309  -14.5492 H   0  0  0  0  0  0  0  0  0  0  0  0
   25.2708  -18.8116  -13.2790 H   0  0  0  0  0  0  0  0  0  0  0  0
   23.7646  -19.3724  -14.6635 H   0  0  0  0  0  0  0  0  0  0  0  0
   24.1665  -19.2917  -11.6973 H   0  0  0  0  0  0  0  0  0  0  0  0
   24.1386  -19.3195  -11.0235 H   0  0  0  0  0  0  0  0  0  0  0  0
   22.2140  -20.1330   -9.1041 H   0  0  0  0  0  0  0  0  0  0  0  0
   20.6558  -20.7676   -8.4746 H   0  0  0  0  0  0  0  0  0  0  0  0
   22.8022  -19.8385  -11.4552 H   0  0  0  0  0  0  0  0  0  0  0  0
   22.3838  -19.9600  -13.1638 H   0  0  0  0  0  0  0  0  0  0  0  0
  1  2  2  3
  2  3  1  0
  3  4  1  0
  4  5  1  0
  5  6  1  0
  6  7  1  0
  7  8  1  0
  8  9  1  0
  9 10  1  0
 10 11  2  0
 11 12  1  0
 12 13  1  0
 13 14  1  0
 14 15  1  0
 15 16  1  0
 16 17  1  0
 17 18  1  0
 18 19  1  0
 19 20  1  0
 20 21  1  0
 21 22  1  0
 22 23  1  0
 23 24  1  0
 23 25  1  0
 18 26  1  0
 26 27  1  0
 27 28  1  0
 28 29  1  0
 29 30  1  0
 29 31  1  0
 31 32  1  0
 12 33  1  0
 33 34  1  0
 34 35  1  0
 34 36  1  0
 36 37  1  0
 37 38  1  0
 38 39  1  0
 39 40  1  0
 40 41  1  0
 38  2  1  0
 41 39  1  0
  6  3  1  0
 41  8  1  0
 13  9  1  0
 32 16  1  0
 41 33  1  0
 26 17  1  0
 32 27  1  0
 39 37  1  0
 22 20  1  0
 32 28  1  0
 25 20  1  0
 25 22  1  0
  1 42  1  0
  1 43  1  0
  3 44  1  0
  4 45  1  0
  4 46  1  0
  5 47  1  0
  5 48  1  0
  6 49  1  0
  7 50  1  0
  7 51  1  0
  8 52  1  0
  9 53  1  0
 10 54  1  0
 11 55  1  0
 12 56  1  0
 13 57  1  0
 14 58  1  0
 14 59  1  0
 15 60  1  0
 15 61  1  0
 16 62  1  0
 17 63  1  0
 18 64  1  0
 19 65  1  0
 19 66  1  0
 21 67  1  0
 21 68  1  0
 23 69  1  0
 24 70  1  0
 24 71  1  0
 24 72  1  0
 25 73  1  0
 27 74  1  0
 28 75  1  0
 29 76  1  0
 30 77  1  0
 30 78  1  0
 30 79  1  0
 31 80  1  0
 31 81  1  0
 33 82  1  0
 34 83  1  0
 35 84  1  0
 35 85  1  0
 35 86  1  0
 36 87  1  0
 37 88  1  0
 38 89  1  0
 40 90  1  0
 40 91  1  0
M  END
