
     RDKit          2D

 21 23  0  0  0  0  0  0  0  0999 V2000
   14.5030  -21.0683   -6.2992 O   0  0  0  0  0  0  0  0  0  0  0  0
   15.2551  -22.0936   -7.0950 C   0  0  0  0  0  0  0  0  0  0  0  0
   14.7866  -23.5183   -7.1158 O   0  0  0  0  0  0  0  0  0  0  0  0
   16.4757  -21.6940   -7.8699 C   0  0  0  0  0  0  0  0  0  0  0  0
   16.8489  -23.0176   -8.4688 C   0  0  0  0  0  0  0  0  0  0  0  0
   18.0519  -23.1260   -9.3583 C   0  0  0  0  0  0  0  0  0  0  0  0
   19.2548  -23.2343  -10.2477 C   0  0  0  0  0  0  0  0  0  0  0  0
   20.0846  -22.0189  -10.5383 C   0  0  0  0  0  0  0  0  0  0  0  0
   19.7114  -20.6953   -9.9395 C   0  0  0  0  0  0  0  0  0  0  0  0
   18.5084  -20.5869   -9.0500 C   0  0  0  0  0  0  0  0  0  0  0  0
   17.6786  -21.8023   -8.7594 C   0  0  0  0  0  0  0  0  0  0  0  0
   13.5660  -23.9179   -6.3408 H   0  0  0  0  0  0  0  0  0  0  0  0
   16.5264  -20.2315   -7.5402 H   0  0  0  0  0  0  0  0  0  0  0  0
   16.0191  -24.2329   -8.1782 H   0  0  0  0  0  0  0  0  0  0  0  0
   17.7883  -24.5918   -9.5362 H   0  0  0  0  0  0  0  0  0  0  0  0
   20.2951  -23.8374  -11.1444 H   0  0  0  0  0  0  0  0  0  0  0  0
   18.7864  -24.6590  -10.2685 H   0  0  0  0  0  0  0  0  0  0  0  0
   21.2875  -22.1272  -11.4277 H   0  0  0  0  0  0  0  0  0  0  0  0
   20.5411  -19.4799  -10.2301 H   0  0  0  0  0  0  0  0  0  0  0  0
   17.4681  -19.9838   -8.1533 H   0  0  0  0  0  0  0  0  0  0  0  0
   18.9769  -19.1622   -9.0292 H   0  0  0  0  0  0  0  0  0  0  0  0
  1  2  2  0
  2  3  1  0
  2  4  1  0
  4  5  1  0
  5  6  1  0
  6  7  1  0
  7  8  1  0
  8  9  2  0
  9 10  1  0
 10 11  1  0
 11  4  1  0
 11  5  1  0
 11  6  1  0
  3 12  1  0
  4 13  1  0
  5 14  1  0
  6 15  1  0
  7 16  1  0
  7 17  1  0
  8 18  1  0
  9 19  1  0
 10 20  1  0
 10 21  1  0
M  END
