
     RDKit          2D

 60 60  0  0  0  0  0  0  0  0999 V2000
   14.0331  -24.4115    0.4584 C   0  0  0  0  0  0  0  0  0  0  0  0
   14.3966  -23.7477   -0.8368 C   0  0  0  0  0  0  0  0  0  0  0  0
   14.7600  -23.0840   -2.1319 C   0  0  0  0  0  0  0  0  0  0  0  0
   14.2802  -21.7690   -1.5927 C   0  0  0  0  0  0  0  0  0  0  0  0
   15.1235  -22.4203   -3.4270 C   0  0  0  0  0  0  0  0  0  0  0  0
   16.4952  -21.8432   -3.6151 C   0  0  0  0  0  0  0  0  0  0  0  0
   16.8586  -21.1796   -4.9102 C   0  0  0  0  0  0  0  0  0  0  0  0
   17.2220  -20.5159   -6.2054 C   0  0  0  0  0  0  0  0  0  0  0  0
   17.5854  -19.8521   -7.5006 C   0  0  0  0  0  0  0  0  0  0  0  0
   17.9487  -19.1884   -8.7957 C   0  0  0  0  0  0  0  0  0  0  0  0
   18.3121  -18.5247  -10.0909 C   0  0  0  0  0  0  0  0  0  0  0  0
   17.7590  -17.1524   -9.8445 C   0  0  0  0  0  0  0  0  0  0  0  0
   18.4396  -17.4645  -11.1443 C   0  0  0  0  0  0  0  0  0  0  0  0
   19.1632  -18.2381  -12.2063 C   0  0  0  0  0  0  0  0  0  0  0  0
   19.8868  -19.0117  -13.2684 C   0  0  0  0  0  0  0  0  0  0  0  0
   20.6104  -19.7853  -14.3303 C   0  0  0  0  0  0  0  0  0  0  0  0
   21.3341  -20.5591  -15.3923 C   0  0  0  0  0  0  0  0  0  0  0  0
   22.0577  -21.3329  -16.4541 C   0  0  0  0  0  0  0  0  0  0  0  0
   22.7813  -22.1068  -17.5159 N   0  0  0  0  0  0  0  0  0  0  0  0
   19.8863  -17.7994  -14.1517 N   0  0  0  0  0  0  0  0  0  0  0  0
   20.5119  -17.8635  -15.5135 C   0  0  0  0  0  0  0  0  0  0  0  0
   21.1374  -17.9276  -16.8753 C   0  0  0  0  0  0  0  0  0  0  0  0
   21.7628  -17.9917  -18.2372 N   0  0  0  0  0  0  0  0  0  0  0  0
   13.6697  -25.0752    1.7535 H   0  0  0  0  0  0  0  0  0  0  0  0
   14.5279  -25.7232   -0.0751 H   0  0  0  0  0  0  0  0  0  0  0  0
   13.5384  -23.0997    0.9918 H   0  0  0  0  0  0  0  0  0  0  0  0
   15.2808  -24.9088   -1.1837 H   0  0  0  0  0  0  0  0  0  0  0  0
   13.8522  -23.1150   -0.5402 H   0  0  0  0  0  0  0  0  0  0  0  0
   15.2399  -24.3989   -2.6711 H   0  0  0  0  0  0  0  0  0  0  0  0
   13.8003  -20.4542   -1.0534 H   0  0  0  0  0  0  0  0  0  0  0  0
   14.0312  -22.0637   -0.7953 H   0  0  0  0  0  0  0  0  0  0  0  0
   14.5847  -20.9495   -2.8115 H   0  0  0  0  0  0  0  0  0  0  0  0
   14.2448  -22.2470   -4.6303 H   0  0  0  0  0  0  0  0  0  0  0  0
   17.5035  -21.9298   -2.5079 H   0  0  0  0  0  0  0  0  0  0  0  0
   17.3960  -22.4813   -5.4265 H   0  0  0  0  0  0  0  0  0  0  0  0
   16.3211  -19.8778   -4.3940 H   0  0  0  0  0  0  0  0  0  0  0  0
   17.8477  -21.7923   -6.6840 H   0  0  0  0  0  0  0  0  0  0  0  0
   16.5962  -19.2393   -5.7268 H   0  0  0  0  0  0  0  0  0  0  0  0
   18.8916  -19.6408  -10.5820 H   0  0  0  0  0  0  0  0  0  0  0  0
   17.3987  -15.7151  -10.0776 H   0  0  0  0  0  0  0  0  0  0  0  0
   17.2035  -17.3395   -8.4638 H   0  0  0  0  0  0  0  0  0  0  0  0
   18.3157  -16.1356  -11.8288 H   0  0  0  0  0  0  0  0  0  0  0  0
   19.0714  -16.9416  -12.9550 H   0  0  0  0  0  0  0  0  0  0  0  0
   19.2457  -19.4049  -11.5325 H   0  0  0  0  0  0  0  0  0  0  0  0
   19.8872  -20.2240  -12.3849 H   0  0  0  0  0  0  0  0  0  0  0  0
   20.6135  -18.5721  -15.2123 H   0  0  0  0  0  0  0  0  0  0  0  0
   20.7467  -20.5348  -14.0951 H   0  0  0  0  0  0  0  0  0  0  0  0
   21.4239  -19.4497  -16.3978 H   0  0  0  0  0  0  0  0  0  0  0  0
   21.3323  -21.7719  -14.5095 H   0  0  0  0  0  0  0  0  0  0  0  0
   22.0538  -22.5465  -15.5724 H   0  0  0  0  0  0  0  0  0  0  0  0
   22.0615  -20.1195  -17.3358 H   0  0  0  0  0  0  0  0  0  0  0  0
   24.2810  -22.1282  -17.5378 H   0  0  0  0  0  0  0  0  0  0  0  0
   22.0053  -22.8593  -18.5559 H   0  0  0  0  0  0  0  0  0  0  0  0
   19.3090  -16.4518  -13.8349 H   0  0  0  0  0  0  0  0  0  0  0  0
   19.8586  -18.0908  -15.9099 H   0  0  0  0  0  0  0  0  0  0  0  0
   21.8271  -17.4405  -14.9293 H   0  0  0  0  0  0  0  0  0  0  0  0
   19.8218  -18.3489  -17.4598 H   0  0  0  0  0  0  0  0  0  0  0  0
   22.5195  -17.5172  -16.4614 H   0  0  0  0  0  0  0  0  0  0  0  0
   21.7621  -16.7796  -19.1208 H   0  0  0  0  0  0  0  0  0  0  0  0
   22.3889  -19.2681  -18.7156 H   0  0  0  0  0  0  0  0  0  0  0  0
  1  2  1  0
  2  3  1  0
  3  4  1  0
  3  5  1  0
  5  6  2  3
  6  7  1  0
  7  8  1  0
  8  9  1  0
  9 10  3  0
 10 11  1  0
 11 12  1  0
 12 13  1  0
 13 14  1  0
 14 15  1  0
 15 16  1  0
 16 17  1  0
 17 18  1  0
 18 19  1  0
 15 20  1  0
 20 21  1  0
 21 22  1  0
 22 23  1  0
 13 11  1  0
  1 24  1  0
  1 25  1  0
  1 26  1  0
  2 27  1  0
  2 28  1  0
  3 29  1  6
  4 30  1  0
  4 31  1  0
  4 32  1  0
  5 33  1  0
  6 34  1  0
  7 35  1  0
  7 36  1  0
  8 37  1  0
  8 38  1  0
 11 39  1  6
 12 40  1  0
 12 41  1  0
 13 42  1  6
 14 43  1  0
 14 44  1  0
 15 45  1  1
 16 46  1  0
 16 47  1  0
 17 48  1  0
 17 49  1  0
 18 50  1  0
 18 51  1  0
 19 52  1  0
 19 53  1  0
 20 54  1  0
 21 55  1  0
 21 56  1  0
 22 57  1  0
 22 58  1  0
 23 59  1  0
 23 60  1  0
M  END
