
     RDKit          2D

 37 41  0  0  0  0  0  0  0  0999 V2000
   16.7181  -20.0113  -11.3615 C   0  0  0  0  0  0  0  0  0  0  0  0
   17.1047  -21.0254  -10.3260 C   0  0  0  0  0  0  0  0  0  0  0  0
   17.4912  -22.0394   -9.2906 C   0  0  0  0  0  0  0  0  0  0  0  0
   18.8711  -22.3848   -9.7665 C   0  0  0  0  0  0  0  0  0  0  0  0
   18.3104  -23.0511   -8.5452 C   0  0  0  0  0  0  0  0  0  0  0  0
   17.3492  -23.4094   -7.4508 C   0  0  0  0  0  0  0  0  0  0  0  0
   18.1684  -24.4210   -6.7055 C   0  0  0  0  0  0  0  0  0  0  0  0
   17.6076  -25.0874   -5.4842 C   0  0  0  0  0  0  0  0  0  0  0  0
   17.2425  -25.8631   -4.2534 C   0  0  0  0  0  0  0  0  0  0  0  0
   17.0809  -26.7308   -3.0406 C   0  0  0  0  0  0  0  0  0  0  0  0
   15.9678  -25.8187   -3.4639 C   0  0  0  0  0  0  0  0  0  0  0  0
   14.7436  -24.9876   -3.7103 C   0  0  0  0  0  0  0  0  0  0  0  0
   14.4916  -23.9957   -4.8069 C   0  0  0  0  0  0  0  0  0  0  0  0
   15.4017  -23.5899   -5.9281 C   0  0  0  0  0  0  0  0  0  0  0  0
   16.7885  -24.0757   -6.2296 C   0  0  0  0  0  0  0  0  0  0  0  0
   16.3315  -18.9973  -12.3970 H   0  0  0  0  0  0  0  0  0  0  0  0
   18.0640  -20.1577  -12.0074 H   0  0  0  0  0  0  0  0  0  0  0  0
   15.3721  -19.8650  -10.7157 H   0  0  0  0  0  0  0  0  0  0  0  0
   18.2477  -21.0779  -11.0425 H   0  0  0  0  0  0  0  0  0  0  0  0
   15.7776  -20.8422   -9.6511 H   0  0  0  0  0  0  0  0  0  0  0  0
   16.1802  -21.9209   -8.5714 H   0  0  0  0  0  0  0  0  0  0  0  0
   20.2189  -23.0406   -9.8254 H   0  0  0  0  0  0  0  0  0  0  0  0
   19.1059  -21.6418  -10.8690 H   0  0  0  0  0  0  0  0  0  0  0  0
   19.4635  -23.9384   -8.1800 H   0  0  0  0  0  0  0  0  0  0  0  0
   16.1962  -22.5221   -7.8159 H   0  0  0  0  0  0  0  0  0  0  0  0
   19.5484  -24.7663   -7.1815 H   0  0  0  0  0  0  0  0  0  0  0  0
   18.9157  -25.8188   -5.4204 H   0  0  0  0  0  0  0  0  0  0  0  0
   18.6051  -26.4786   -4.3736 H   0  0  0  0  0  0  0  0  0  0  0  0
   18.4104  -27.4253   -3.0382 H   0  0  0  0  0  0  0  0  0  0  0  0
   16.4575  -27.3573   -1.8285 H   0  0  0  0  0  0  0  0  0  0  0  0
   15.2241  -26.3609   -2.2794 H   0  0  0  0  0  0  0  0  0  0  0  0
   14.3783  -25.7633   -2.4794 H   0  0  0  0  0  0  0  0  0  0  0  0
   13.3601  -24.6159   -3.2655 H   0  0  0  0  0  0  0  0  0  0  0  0
   13.1595  -23.8264   -4.1384 H   0  0  0  0  0  0  0  0  0  0  0  0
   13.5420  -23.0142   -5.4272 H   0  0  0  0  0  0  0  0  0  0  0  0
   14.2664  -22.6912   -6.3196 H   0  0  0  0  0  0  0  0  0  0  0  0
   15.6010  -22.7376   -7.1463 H   0  0  0  0  0  0  0  0  0  0  0  0
  1  2  1  0
  2  3  1  0
  3  4  1  0
  4  5  1  0
  5  6  1  0
  6  7  1  0
  7  8  1  0
  8  9  1  0
  9 10  1  0
 10 11  1  0
 11 12  1  0
 12 13  1  0
 13 14  1  0
 14 15  1  0
  5  3  1  0
 15  6  1  0
 15  7  1  0
 15  8  1  0
 11  9  1  0
  1 16  1  0
  1 17  1  0
  1 18  1  0
  2 19  1  0
  2 20  1  0
  3 21  1  0
  4 22  1  0
  4 23  1  0
  5 24  1  0
  6 25  1  0
  7 26  1  0
  8 27  1  0
  9 28  1  0
 10 29  1  0
 10 30  1  0
 11 31  1  0
 12 32  1  0
 12 33  1  0
 13 34  1  0
 13 35  1  0
 14 36  1  0
 14 37  1  0
M  END
