
     RDKit          2D

 44 47  0  0  0  0  0  0  0  0999 V2000
   -3.0260   28.3864    8.5956 C   0  0  0  0  0  0  0  0  0  0  0  0
   -2.8836   28.7918    7.1584 C   0  0  0  0  0  0  0  0  0  0  0  0
   -2.7412   29.1971    5.7213 C   0  0  0  0  0  0  0  0  0  0  0  0
   -2.8980   28.1751    4.6347 C   0  0  0  0  0  0  0  0  0  0  0  0
   -2.7556   28.5804    3.1975 C   0  0  0  0  0  0  0  0  0  0  0  0
   -3.1233   29.9705    2.7703 C   0  0  0  0  0  0  0  0  0  0  0  0
   -2.6132   28.9857    1.7604 C   0  0  0  0  0  0  0  0  0  0  0  0
   -2.2455   27.5956    2.1875 C   0  0  0  0  0  0  0  0  0  0  0  0
   -2.0289   26.4038    3.0722 N   0  0  0  0  0  0  0  0  0  0  0  0
   -1.5051   25.1240    2.4912 C   0  0  0  0  0  0  0  0  0  0  0  0
   -2.3360   26.4919    4.5377 Se  0  0  0  0  0  2  0  0  0  0  0  0
   -2.1194   25.3000    5.4224 C   0  0  0  0  0  0  0  0  0  0  0  0
   -1.9027   24.1082    6.3069 C   0  0  0  0  0  0  0  0  0  0  0  0
   -1.4236   23.3182    5.1254 O   0  0  0  0  0  0  0  0  0  0  0  0
   -1.2069   22.1264    6.0099 O   0  0  0  0  0  0  0  0  0  0  0  0
   -1.6861   22.9164    7.1916 C   0  0  0  0  0  0  0  0  0  0  0  0
   -2.1652   23.7063    8.3733 C   0  0  0  0  0  0  0  0  0  0  0  0
   -2.6443   24.4963    9.5550 C   0  0  0  0  0  0  0  0  0  0  0  0
   -3.0195   24.8314   10.9681 C   0  0  0  0  0  0  0  0  0  0  0  0
   -2.5114   23.4607   10.6319 N   0  0  0  0  0  0  0  0  0  0  0  0
   -3.1684   27.9811   10.0327 H   0  0  0  0  0  0  0  0  0  0  0  0
   -2.5203   27.0150    8.2589 H   0  0  0  0  0  0  0  0  0  0  0  0
   -3.5317   29.7579    8.9323 H   0  0  0  0  0  0  0  0  0  0  0  0
   -2.7786   30.2292    7.5742 H   0  0  0  0  0  0  0  0  0  0  0  0
   -2.9885   27.3544    6.7426 H   0  0  0  0  0  0  0  0  0  0  0  0
   -2.4418   30.6246    5.3708 H   0  0  0  0  0  0  0  0  0  0  0  0
   -3.1864   26.8762    5.3273 H   0  0  0  0  0  0  0  0  0  0  0  0
   -3.5582   30.5413    4.0876 H   0  0  0  0  0  0  0  0  0  0  0  0
   -3.3400   31.1623    1.8857 H   0  0  0  0  0  0  0  0  0  0  0  0
   -2.4708   29.3911    0.3232 H   0  0  0  0  0  0  0  0  0  0  0  0
   -1.8107   27.0249    0.8703 H   0  0  0  0  0  0  0  0  0  0  0  0
   -0.9812   23.8440    1.9102 H   0  0  0  0  0  0  0  0  0  0  0  0
   -1.4853   24.4885    3.5266 H   0  0  0  0  0  0  0  0  0  0  0  0
   -1.4653   25.7571    1.1320 H   0  0  0  0  0  0  0  0  0  0  0  0
   -1.7122   24.5474    4.5598 H   0  0  0  0  0  0  0  0  0  0  0  0
   -2.5992   26.0898    6.6039 H   0  0  0  0  0  0  0  0  0  0  0  0
   -2.1991   24.6570    6.9359 H   0  0  0  0  0  0  0  0  0  0  0  0
   -1.4694   21.7245    8.0763 H   0  0  0  0  0  0  0  0  0  0  0  0
   -1.9432   22.5162    9.2590 H   0  0  0  0  0  0  0  0  0  0  0  0
   -2.3297   24.4607    7.9393 H   0  0  0  0  0  0  0  0  0  0  0  0
   -2.9435   25.8064    8.8885 H   0  0  0  0  0  0  0  0  0  0  0  0
   -3.4490   26.2577   10.7924 H   0  0  0  0  0  0  0  0  0  0  0  0
   -3.2455   24.6710   12.4423 H   0  0  0  0  0  0  0  0  0  0  0  0
   -2.1414   22.0713   11.0595 H   0  0  0  0  0  0  0  0  0  0  0  0
  1  2  1  0
  2  3  1  0
  3  4  2  3
  5  4  1  0
  5  6  1  1
  6  7  1  0
  7  8  1  0
  8  9  1  0
  9 10  1  0
  9 11  1  0
 11 12  1  0
 12 13  1  0
 13 14  1  0
 14 15  1  0
 15 16  1  0
 16 17  1  0
 17 18  1  0
 18 19  1  0
 19 20  1  0
  7  5  1  0
 16 13  1  0
 20 18  1  0
  8  5  1  0
  1 21  1  0
  1 22  1  0
  1 23  1  0
  2 24  1  0
  2 25  1  0
  3 26  1  0
  4 27  1  0
  6 28  1  0
  6 29  1  0
  7 30  1  6
  8 31  1  1
 10 32  1  0
 10 33  1  0
 10 34  1  0
 12 35  1  0
 12 36  1  0
 13 37  1  6
 16 38  1  1
 17 39  1  0
 17 40  1  0
 18 41  1  1
 19 42  1  0
 19 43  1  0
 20 44  1  0
M  END
