
     RDKit          2D

 66 70  0  0  0  0  0  0  0  0999 V2000
   22.6698  -25.6474   -9.8878 C   0  0  0  0  0  0  0  0  0  0  0  0
   21.7805  -24.4442   -9.9944 N   0  0  0  0  0  0  0  0  0  0  0  0
   20.5952  -24.3047   -9.0858 C   0  0  0  0  0  0  0  0  0  0  0  0
   19.4098  -24.1652   -8.1772 C   0  0  0  0  0  0  0  0  0  0  0  0
   18.2245  -24.0259   -7.2686 C   0  0  0  0  0  0  0  0  0  0  0  0
   17.0392  -23.8864   -6.3600 C   0  0  0  0  0  0  0  0  0  0  0  0
   16.8225  -22.5993   -7.0991 N   0  0  0  0  0  0  0  0  0  0  0  0
   15.8086  -23.4779   -5.6059 C   0  0  0  0  0  0  0  0  0  0  0  0
   15.5126  -24.5417   -4.5907 N   0  0  0  0  0  0  0  0  0  0  0  0
   16.5602  -25.6077   -4.7173 C   0  0  0  0  0  0  0  0  0  0  0  0
   17.4495  -26.8109   -4.6107 Sb  0  0  0  0  0  2  0  0  0  0  0  0
   15.8026  -26.2642   -3.6016 N   0  0  0  0  0  2  0  0  0  0  0  0
   16.2671  -27.5806   -3.0524 C   0  0  0  0  0  0  0  0  0  0  0  0
   17.5037  -25.2027   -5.8108 C   0  0  0  0  0  0  0  0  0  0  0  0
   18.7015  -25.9779   -6.2739 C   0  0  0  0  0  0  0  0  0  0  0  0
   19.0672  -22.8565   -8.8250 Si  0  0  0  0  0  4  0  0  0  0  0  0
   18.7246  -21.5477   -9.4728 O   0  0  0  0  0  0  0  0  0  0  0  0
   17.5268  -20.7726   -9.0098 C   0  0  0  0  0  0  0  0  0  0  0  0
   16.3289  -19.9974   -8.5469 C   0  0  0  0  0  0  0  0  0  0  0  0
   15.1311  -19.2222   -8.0839 C   0  0  0  0  0  0  0  0  0  0  0  0
   13.8979  -18.6852   -7.4199 C   0  0  0  0  0  0  0  0  0  0  0  0
   13.5553  -17.3764   -8.0678 C   0  0  0  0  0  0  0  0  0  0  0  0
   14.5767  -17.1046   -9.1321 C   0  0  0  0  0  0  0  0  0  0  0  0
   15.7197  -17.1065  -10.1034 C   0  0  0  0  0  0  0  0  0  0  0  0
   15.5506  -18.2454   -9.1421 C   0  0  0  0  0  0  0  0  0  0  0  0
   16.7484  -19.0205   -9.6051 C   0  0  0  0  0  0  0  0  0  0  0  0
   17.2478  -18.1075  -10.6853 C   0  0  0  0  0  0  0  0  0  0  0  0
   18.4746  -18.4721  -11.4677 O   0  0  0  0  0  0  0  0  0  0  0  0
   17.9752  -19.3851  -10.3874 C   0  0  0  0  0  0  0  0  0  0  0  0
   18.7026  -20.6627  -10.0894 N   0  0  0  0  0  0  0  0  0  0  0  0
   23.8550  -25.7868  -10.7964 H   0  0  0  0  0  0  0  0  0  0  0  0
   22.3737  -26.7112   -8.8726 H   0  0  0  0  0  0  0  0  0  0  0  0
   20.9799  -25.5760   -8.3888 H   0  0  0  0  0  0  0  0  0  0  0  0
   20.3578  -23.0599   -9.8884 H   0  0  0  0  0  0  0  0  0  0  0  0
   19.8944  -25.4813   -7.6450 H   0  0  0  0  0  0  0  0  0  0  0  0
   18.8440  -25.3294   -6.8597 H   0  0  0  0  0  0  0  0  0  0  0  0
   17.9469  -22.9659   -7.7935 H   0  0  0  0  0  0  0  0  0  0  0  0
   15.9311  -21.7936   -6.9186 H   0  0  0  0  0  0  0  0  0  0  0  0
   17.5025  -22.1500   -8.0001 H   0  0  0  0  0  0  0  0  0  0  0  0
   15.7194  -22.4587   -6.2613 H   0  0  0  0  0  0  0  0  0  0  0  0
   14.5864  -22.8181   -5.0392 H   0  0  0  0  0  0  0  0  0  0  0  0
   14.3696  -24.5399   -3.6194 H   0  0  0  0  0  0  0  0  0  0  0  0
   17.3709  -27.4223   -4.1052 H   0  0  0  0  0  0  0  0  0  0  0  0
   16.7317  -28.8968   -2.5033 H   0  0  0  0  0  0  0  0  0  0  0  0
   17.4074  -27.5847   -4.0270 H   0  0  0  0  0  0  0  0  0  0  0  0
   15.6323  -27.6729   -2.4417 H   0  0  0  0  0  0  0  0  0  0  0  0
   19.0440  -27.2869   -5.6262 H   0  0  0  0  0  0  0  0  0  0  0  0
   19.6588  -25.5949   -7.3633 H   0  0  0  0  0  0  0  0  0  0  0  0
   17.8335  -22.4051   -8.1010 H   0  0  0  0  0  0  0  0  0  0  0  0
   20.2027  -22.8347   -9.8050 H   0  0  0  0  0  0  0  0  0  0  0  0
   17.3784  -21.9235   -8.0594 H   0  0  0  0  0  0  0  0  0  0  0  0
   18.1044  -19.9274  -10.1062 H   0  0  0  0  0  0  0  0  0  0  0  0
   16.9035  -19.1550   -9.6469 H   0  0  0  0  0  0  0  0  0  0  0  0
   16.0355  -21.0589   -7.5286 H   0  0  0  0  0  0  0  0  0  0  0  0
   14.9620  -20.3611   -7.1226 H   0  0  0  0  0  0  0  0  0  0  0  0
   13.9866  -19.9364   -6.5974 H   0  0  0  0  0  0  0  0  0  0  0  0
   12.6833  -18.4097   -6.5840 H   0  0  0  0  0  0  0  0  0  0  0  0
   12.4123  -17.3746   -7.0964 H   0  0  0  0  0  0  0  0  0  0  0  0
   12.9737  -16.0673   -8.5125 H   0  0  0  0  0  0  0  0  0  0  0  0
   13.9951  -15.7954   -9.5769 H   0  0  0  0  0  0  0  0  0  0  0  0
   15.4606  -15.8106  -10.8131 H   0  0  0  0  0  0  0  0  0  0  0  0
   16.8544  -17.0852  -11.0843 H   0  0  0  0  0  0  0  0  0  0  0  0
   16.9654  -20.3076   -8.8659 H   0  0  0  0  0  0  0  0  0  0  0  0
   16.6474  -16.8009  -11.1122 H   0  0  0  0  0  0  0  0  0  0  0  0
   19.9295  -21.0271  -10.8715 H   0  0  0  0  0  0  0  0  0  0  0  0
   18.4909  -21.7780   -9.1090 H   0  0  0  0  0  0  0  0  0  0  0  0
  1  2  2  3
  2  3  1  0
  3  4  1  0
  4  5  1  0
  5  6  1  0
  6  7  1  0
  6  8  1  0
  8  9  1  0
  9 10  1  0
 10 11  1  0
 10 12  1  0
 12 13  1  0
 10 14  1  0
 14 15  2  3
  4 16  1  0
 16 17  1  0
 17 18  1  0
 18 19  1  0
 19 20  1  0
 20 21  1  0
 21 22  1  0
 22 23  1  0
 23 24  1  0
 24 25  1  0
 25 26  1  0
 26 27  1  0
 27 28  1  0
 28 29  1  0
 29 30  1  0
 14  6  1  0
 25 20  1  0
 29 26  1  0
 25 23  1  0
 29 27  1  0
  1 31  1  0
  1 32  1  0
  3 33  1  0
  3 34  1  0
  4 35  1  0
  5 36  1  0
  5 37  1  0
  7 38  1  0
  7 39  1  0
  8 40  1  0
  8 41  1  0
  9 42  1  0
 11 43  1  0
 13 44  1  0
 13 45  1  0
 13 46  1  0
 15 47  1  0
 15 48  1  0
 16 49  1  0
 16 50  1  0
 18 51  1  0
 18 52  1  0
 19 53  1  0
 19 54  1  0
 20 55  1  0
 21 56  1  0
 21 57  1  0
 22 58  1  0
 22 59  1  0
 23 60  1  0
 24 61  1  0
 24 62  1  0
 26 63  1  0
 27 64  1  0
 30 65  1  0
 30 66  1  0
M  RAD  2  11   2  12   2
M  END
