
     RDKit          2D

115120  0  0  0  0  0  0  0  0999 V2000
   -1.9543   18.1093    9.6707 C   0  0  0  0  0  0  0  0  0  0  0  0
   -1.1262   19.3522    9.5318 C   0  0  0  0  0  0  0  0  0  0  0  0
   -0.1870   19.6387   10.6657 C   0  0  0  0  0  0  0  0  0  0  0  0
    0.7636   20.7881   10.8252 C   0  0  0  0  0  0  0  0  0  0  0  0
    1.8124   21.5849   11.5430 C   0  0  0  0  0  0  0  0  0  0  0  0
    2.8611   22.3817   12.2607 C   0  0  0  0  0  0  0  0  0  0  0  0
    1.0097   21.9348    9.8900 C   0  0  0  0  0  0  0  0  0  0  0  0
    1.6738   23.2090    9.4596 C   0  0  0  0  0  0  0  0  0  0  0  0
    0.3661   22.2153    8.5645 C   0  0  0  0  0  0  0  0  0  0  0  0
   -0.6826   21.4185    7.8468 C   0  0  0  0  0  0  0  0  0  0  0  0
   -1.7305   20.5672    7.1931 C   0  0  0  0  0  0  0  0  0  0  0  0
   -2.5037   20.6357    5.9096 C   0  0  0  0  0  0  0  0  0  0  0  0
   -2.5495   21.5837    4.7481 C   0  0  0  0  0  0  0  0  0  0  0  0
   -3.1129   21.9792    3.4154 C   0  0  0  0  0  0  0  0  0  0  0  0
   -1.8409   22.8561    4.3890 C   0  0  0  0  0  0  0  0  0  0  0  0
   -0.7930   23.7075    5.0427 C   0  0  0  0  0  0  0  0  0  0  0  0
    0.2072   24.7751    5.3735 C   0  0  0  0  0  0  0  0  0  0  0  0
    0.0704   25.6454    4.1595 C   0  0  0  0  0  0  0  0  0  0  0  0
    0.9025   26.8866    4.0288 C   0  0  0  0  0  0  0  0  0  0  0  0
   -0.8986   25.2746    3.0762 C   0  0  0  0  0  0  0  0  0  0  0  0
   -1.8676   24.9037    1.9930 C   0  0  0  0  0  0  0  0  0  0  0  0
   -2.8366   24.5328    0.9096 C   0  0  0  0  0  0  0  0  0  0  0  0
   -0.0198   23.6390    6.3262 C   0  0  0  0  0  0  0  0  0  0  0  0
    1.0250   24.3593    7.1259 C   0  0  0  0  0  0  0  0  0  0  0  0
    0.7536   23.1991    8.0371 C   0  0  0  0  0  0  0  0  0  0  0  0
    1.4952   23.0752    9.3350 C   0  0  0  0  0  0  0  0  0  0  0  0
    2.5083   24.1116    9.7218 C   0  0  0  0  0  0  0  0  0  0  0  0
    2.7798   25.2718    8.8107 C   0  0  0  0  0  0  0  0  0  0  0  0
    2.0382   25.3956    7.5127 C   0  0  0  0  0  0  0  0  0  0  0  0
    1.5949   25.9458    6.1896 C   0  0  0  0  0  0  0  0  0  0  0  0
    0.5501   25.2255    5.3898 C   0  0  0  0  0  0  0  0  0  0  0  0
   -0.4947   24.5053    4.5901 C   0  0  0  0  0  0  0  0  0  0  0  0
   -1.0963   23.2348    5.1136 C   0  0  0  0  0  0  0  0  0  0  0  0
   -1.6979   21.9643    5.6372 C   0  0  0  0  0  0  0  0  0  0  0  0
    2.1965   27.2162    5.6660 C   0  0  0  0  0  0  0  0  0  0  0  0
    2.7981   28.4867    5.1425 C   0  0  0  0  0  0  0  0  0  0  0  0
    3.3997   29.7571    4.6190 C   0  0  0  0  0  0  0  0  0  0  0  0
    4.0013   31.0276    4.0954 C   0  0  0  0  0  0  0  0  0  0  0  0
    4.6029   32.2980    3.5719 C   0  0  0  0  0  0  0  0  0  0  0  0
    2.5323   29.6650    3.3986 C   0  0  0  0  0  0  0  0  0  0  0  0
    2.6194   30.7193    2.3353 C   0  0  0  0  0  0  0  0  0  0  0  0
    1.6649   29.5729    2.1784 C   0  0  0  0  0  0  0  0  0  0  0  0
    1.5778   28.5186    3.2418 O   0  0  0  0  0  0  0  0  0  0  0  0
    0.0260   22.6909    7.4877 C   0  0  0  0  0  0  0  0  0  0  0  0
   -1.3467   20.1443    8.2772 C   0  0  0  0  0  0  0  0  0  0  0  0
   -2.9258   17.7308    8.5923 H   0  0  0  0  0  0  0  0  0  0  0  0
   -1.8109   17.2448   10.8882 H   0  0  0  0  0  0  0  0  0  0  0  0
    0.3509   19.2087   11.9983 H   0  0  0  0  0  0  0  0  0  0  0  0
   -0.8511   18.3645   11.0962 H   0  0  0  0  0  0  0  0  0  0  0  0
    1.1075   20.1235   12.1252 H   0  0  0  0  0  0  0  0  0  0  0  0
    1.7988   20.5908   12.6662 H   0  0  0  0  0  0  0  0  0  0  0  0
    2.0792   22.7422   10.6268 H   0  0  0  0  0  0  0  0  0  0  0  0
    3.9098   23.1785   12.9785 H   0  0  0  0  0  0  0  0  0  0  0  0
    2.8502   21.3857   13.3824 H   0  0  0  0  0  0  0  0  0  0  0  0
    2.8720   23.3777   11.1391 H   0  0  0  0  0  0  0  0  0  0  0  0
    1.9489   22.2212   11.0240 H   0  0  0  0  0  0  0  0  0  0  0  0
    2.3380   24.4832    9.0291 H   0  0  0  0  0  0  0  0  0  0  0  0
    2.5595   23.3681   10.6597 H   0  0  0  0  0  0  0  0  0  0  0  0
    0.8632   23.2051    8.1976 H   0  0  0  0  0  0  0  0  0  0  0  0
    0.2721   23.1232    7.3742 H   0  0  0  0  0  0  0  0  0  0  0  0
    1.3636   23.2891    8.8841 H   0  0  0  0  0  0  0  0  0  0  0  0
   -2.5397   19.3167    7.3701 H   0  0  0  0  0  0  0  0  0  0  0  0
   -1.6665   19.6340    8.3658 H   0  0  0  0  0  0  0  0  0  0  0  0
   -3.5477   19.9245    5.1007 H   0  0  0  0  0  0  0  0  0  0  0  0
   -3.0978   19.3661    6.4437 H   0  0  0  0  0  0  0  0  0  0  0  0
   -3.5807   20.6088    4.2624 H   0  0  0  0  0  0  0  0  0  0  0  0
   -3.6764   22.3746    2.0827 H   0  0  0  0  0  0  0  0  0  0  0  0
   -3.9972   20.7676    3.4298 H   0  0  0  0  0  0  0  0  0  0  0  0
   -2.3040   23.2299    3.2386 H   0  0  0  0  0  0  0  0  0  0  0  0
   -1.4907   24.0541    3.5571 H   0  0  0  0  0  0  0  0  0  0  0  0
   -2.5358   23.0572    3.0750 H   0  0  0  0  0  0  0  0  0  0  0  0
   -1.2197   24.2775    3.7225 H   0  0  0  0  0  0  0  0  0  0  0  0
    1.2019   25.8549    5.6816 H   0  0  0  0  0  0  0  0  0  0  0  0
    0.7656   27.7569    2.8147 H   0  0  0  0  0  0  0  0  0  0  0  0
    1.9510   27.6698    4.7618 H   0  0  0  0  0  0  0  0  0  0  0  0
   -0.4973   26.4937    2.2999 H   0  0  0  0  0  0  0  0  0  0  0  0
   -1.2999   24.0554    3.8525 H   0  0  0  0  0  0  0  0  0  0  0  0
   -1.4646   26.1216    1.2154 H   0  0  0  0  0  0  0  0  0  0  0  0
   -2.1495   23.7402    2.8966 H   0  0  0  0  0  0  0  0  0  0  0  0
   -3.8055   24.1620   -0.1737 H   0  0  0  0  0  0  0  0  0  0  0  0
   -2.4378   25.7539    0.1349 H   0  0  0  0  0  0  0  0  0  0  0  0
   -3.2353   23.3118    1.6843 H   0  0  0  0  0  0  0  0  0  0  0  0
    0.8070   25.1539    5.8724 H   0  0  0  0  0  0  0  0  0  0  0  0
    0.4999   22.0482    8.9651 H   0  0  0  0  0  0  0  0  0  0  0  0
   -0.2760   22.5925    7.1303 H   0  0  0  0  0  0  0  0  0  0  0  0
    2.0510   22.6693   10.6678 H   0  0  0  0  0  0  0  0  0  0  0  0
    0.9088   21.8067    9.8800 H   0  0  0  0  0  0  0  0  0  0  0  0
    3.5531   24.8318   10.5215 H   0  0  0  0  0  0  0  0  0  0  0  0
    2.5997   23.2015   10.9107 H   0  0  0  0  0  0  0  0  0  0  0  0
    3.3814   26.5423    8.2872 H   0  0  0  0  0  0  0  0  0  0  0  0
    3.7303   25.5891    9.9268 H   0  0  0  0  0  0  0  0  0  0  0  0
    2.9642   26.5722    7.6027 H   0  0  0  0  0  0  0  0  0  0  0  0
   -1.0506   24.9112    3.2573 H   0  0  0  0  0  0  0  0  0  0  0  0
   -1.1011   23.2203    6.6135 H   0  0  0  0  0  0  0  0  0  0  0  0
   -1.3939   22.6112    3.7823 H   0  0  0  0  0  0  0  0  0  0  0  0
   -2.5675   20.7431    5.6866 H   0  0  0  0  0  0  0  0  0  0  0  0
   -2.6771   21.5616    4.5746 H   0  0  0  0  0  0  0  0  0  0  0  0
   -0.8388   22.0626    6.8628 H   0  0  0  0  0  0  0  0  0  0  0  0
    1.9112   27.3833    4.2028 H   0  0  0  0  0  0  0  0  0  0  0  0
    2.8025   27.6777    6.9583 H   0  0  0  0  0  0  0  0  0  0  0  0
    3.6600   28.5829    6.3663 H   0  0  0  0  0  0  0  0  0  0  0  0
    1.8162   28.0859    4.0817 H   0  0  0  0  0  0  0  0  0  0  0  0
    4.2671   29.8492    5.8393 H   0  0  0  0  0  0  0  0  0  0  0  0
    5.1952   30.8272    4.9811 H   0  0  0  0  0  0  0  0  0  0  0  0
    3.1024   31.6700    3.0810 H   0  0  0  0  0  0  0  0  0  0  0  0
    5.2044   33.5684    3.0484 H   0  0  0  0  0  0  0  0  0  0  0  0
    5.4254   32.4229    4.8201 H   0  0  0  0  0  0  0  0  0  0  0  0
    3.8598   32.3289    2.2693 H   0  0  0  0  0  0  0  0  0  0  0  0
    3.6157   31.8014    2.6290 H   0  0  0  0  0  0  0  0  0  0  0  0
    2.3415   31.4654    1.0640 H   0  0  0  0  0  0  0  0  0  0  0  0
    0.7975   29.4808    0.9581 H   0  0  0  0  0  0  0  0  0  0  0  0
    0.5894   22.2955    8.8204 H   0  0  0  0  0  0  0  0  0  0  0  0
    1.0572   23.6659    7.9734 H   0  0  0  0  0  0  0  0  0  0  0  0
   -2.2973   18.9950    8.1177 H   0  0  0  0  0  0  0  0  0  0  0  0
   -2.2444   19.9607    7.0896 H   0  0  0  0  0  0  0  0  0  0  0  0
  1  2  2  3
  2  3  1  0
  3  4  1  0
  4  5  1  0
  5  6  1  0
  4  7  1  0
  7  8  1  0
  7  9  1  0
  9 10  1  0
 10 11  1  0
 11 12  1  0
 12 13  1  0
 13 14  1  0
 13 15  1  0
 15 16  1  0
 16 17  1  0
 17 18  1  0
 18 19  2  3
 18 20  1  0
 20 21  1  0
 21 22  1  0
 17 23  1  0
 23 24  1  0
 24 25  1  0
 25 26  1  0
 26 27  1  0
 27 28  1  0
 28 29  1  0
 29 30  1  0
 30 31  2  0
 31 32  2  0
 32 33  1  0
 33 34  1  0
 30 35  1  0
 35 36  1  0
 36 37  1  0
 37 38  1  0
 38 39  1  0
 37 40  1  0
 40 41  1  0
 41 42  1  0
 42 43  1  0
 23 44  1  0
 10 45  1  0
 45  2  1  0
 44 10  1  0
 23 16  1  0
 29 24  1  0
 42 40  1  0
 43 40  1  0
  1 46  1  0
  1 47  1  0
  3 48  1  0
  3 49  1  0
  4 50  1  0
  5 51  1  0
  5 52  1  0
  6 53  1  0
  6 54  1  0
  6 55  1  0
  7 56  1  0
  8 57  1  0
  8 58  1  0
  8 59  1  0
  9 60  1  0
  9 61  1  0
 11 62  1  0
 11 63  1  0
 12 64  1  0
 12 65  1  0
 13 66  1  0
 14 67  1  0
 14 68  1  0
 14 69  1  0
 15 70  1  0
 15 71  1  0
 16 72  1  0
 17 73  1  0
 19 74  1  0
 19 75  1  0
 20 76  1  0
 20 77  1  0
 21 78  1  0
 21 79  1  0
 22 80  1  0
 22 81  1  0
 22 82  1  0
 24 83  1  0
 25 84  1  0
 25 85  1  0
 26 86  1  0
 26 87  1  0
 27 88  1  0
 27 89  1  0
 28 90  1  0
 28 91  1  0
 29 92  1  0
 32 93  1  0
 33 94  1  0
 33 95  1  0
 34 96  1  0
 34 97  1  0
 34 98  1  0
 35 99  1  0
 35100  1  0
 36101  1  0
 36102  1  0
 37103  1  0
 38104  1  0
 38105  1  0
 39106  1  0
 39107  1  0
 39108  1  0
 41109  1  0
 41110  1  0
 42111  1  0
 44112  1  0
 44113  1  0
 45114  1  0
 45115  1  0
M  END
