
     RDKit          2D

 37 36  0  0  0  0  0  0  0  0999 V2000
   -4.2861   26.5382   12.2758 C   0  0  0  0  0  0  0  0  0  0  0  0
   -5.1103   25.5822   11.4654 C   0  0  0  0  0  0  0  0  0  0  0  0
   -5.6620   26.0073   10.1369 C   0  0  0  0  0  0  0  0  0  0  0  0
   -6.2138   26.4323    8.8084 N   0  0  0  0  0  0  0  0  0  0  0  0
   -5.9413   27.8134    8.2903 C   0  0  0  0  0  0  0  0  0  0  0  0
   -4.7656   27.9282    9.2146 C   0  0  0  0  0  0  0  0  0  0  0  0
   -7.1171   27.6986    7.3660 C   0  0  0  0  0  0  0  0  0  0  0  0
      -nan      -nan      -nan C   0  0  0  0  0  0  0  0  0  0  0  0
      -nan      -nan      -nan C   0  0  0  0  0  0  0  0  0  0  0  0
      -nan      -nan      -nan C   0  0  0  0  0  0  0  0  0  0  0  0
      -nan      -nan      -nan C   0  0  0  0  0  0  0  0  0  0  0  0
      -nan      -nan      -nan O   0  0  0  0  0  0  0  0  0  0  0  0
      -nan      -nan      -nan C   0  0  0  0  0  0  0  0  0  0  0  0
      -nan      -nan      -nan O   0  0  0  0  0  0  0  0  0  0  0  0
   -3.7344   26.1131   13.6043 H   0  0  0  0  0  0  0  0  0  0  0  0
   -4.0137   27.9193   11.7577 H   0  0  0  0  0  0  0  0  0  0  0  0
   -6.3576   24.7198    9.8074 H   0  0  0  0  0  0  0  0  0  0  0  0
   -5.2924   26.6915   10.3120 H   0  0  0  0  0  0  0  0  0  0  0  0
   -7.0121   25.3563    8.1341 H   0  0  0  0  0  0  0  0  0  0  0  0
   -5.6689   29.1945    7.7723 H   0  0  0  0  0  0  0  0  0  0  0  0
   -3.5898   28.0430   10.1389 H   0  0  0  0  0  0  0  0  0  0  0  0
   -4.3310   29.1773    8.5068 H   0  0  0  0  0  0  0  0  0  0  0  0
   -4.7572   27.3304    9.7419 H   0  0  0  0  0  0  0  0  0  0  0  0
   -8.2929   27.5838    6.4417 H   0  0  0  0  0  0  0  0  0  0  0  0
   -7.0078   29.1599    7.0455 H   0  0  0  0  0  0  0  0  0  0  0  0
   -7.3690   26.2343    7.5715 H   0  0  0  0  0  0  0  0  0  0  0  0
      -nan      -nan      -nan H   0  0  0  0  0  0  0  0  0  0  0  0
      -nan      -nan      -nan H   0  0  0  0  0  0  0  0  0  0  0  0
      -nan      -nan      -nan H   0  0  0  0  0  0  0  0  0  0  0  0
      -nan      -nan      -nan H   0  0  0  0  0  0  0  0  0  0  0  0
      -nan      -nan      -nan H   0  0  0  0  0  0  0  0  0  0  0  0
      -nan      -nan      -nan H   0  0  0  0  0  0  0  0  0  0  0  0
      -nan      -nan      -nan H   0  0  0  0  0  0  0  0  0  0  0  0
      -nan      -nan      -nan H   0  0  0  0  0  0  0  0  0  0  0  0
      -nan      -nan      -nan H   0  0  0  0  0  0  0  0  0  0  0  0
      -nan      -nan      -nan H   0  0  0  0  0  0  0  0  0  0  0  0
      -nan      -nan      -nan H   0  0  0  0  0  0  0  0  0  0  0  0
  1  2  2  3
  2  3  1  0
  3  4  1  0
  4  5  1  0
  5  6  1  0
  5  7  1  0
  2  8  1  0
  8  9  1  0
  8 10  1  0
 10 11  1  0
 11 12  1  0
 12 13  1  0
 13 14  1  0
  1 15  1  0
  1 16  1  0
  3 17  1  0
  3 18  1  0
  4 19  1  0
  5 20  1  0
  6 21  1  0
  6 22  1  0
  6 23  1  0
  7 24  1  0
  7 25  1  0
  7 26  1  0
  8 27  1  0
  9 28  1  0
  9 29  1  0
  9 30  1  0
 10 31  1  0
 10 32  1  0
 11 33  1  0
 11 34  1  0
 13 35  1  0
 13 36  1  0
 14 37  1  0
M  END
