
     RDKit          2D

 24 23  0  0  0  0  0  0  0  0999 V2000
   14.8972  -21.8904   -6.2225 C   0  0  0  0  0  0  0  0  0  0  0  0
   15.5429  -22.5449   -5.0374 C   0  0  0  0  0  0  0  0  0  0  0  0
   16.1887  -23.1994   -3.8522 C   0  0  0  0  0  0  0  0  0  0  0  0
   16.8344  -23.8539   -2.6670 N   0  0  0  0  0  0  0  0  0  0  0  0
   16.2830  -23.4738   -5.9536 C   0  0  0  0  0  0  0  0  0  0  0  0
   17.0230  -24.4027   -6.8698 C   0  0  0  0  0  0  0  0  0  0  0  0
   17.7631  -25.3317   -7.7860 O   0  0  0  0  0  1  0  0  0  0  0  0
   16.6131  -23.5683   -8.0469 S   0  0  0  0  0  3  0  0  0  0  0  0
   15.4355  -22.6456   -7.9385 O   0  0  0  0  0  0  0  0  0  0  0  0
   17.3809  -23.6564   -9.3325 O   0  0  0  0  0  0  0  0  0  0  0  0
   18.5586  -24.5791   -9.4410 O   0  0  0  0  0  0  0  0  0  0  0  0
   14.2514  -21.2359   -7.4077 H   0  0  0  0  0  0  0  0  0  0  0  0
   14.4143  -20.7750   -5.3434 H   0  0  0  0  0  0  0  0  0  0  0  0
   15.0138  -22.3191   -6.8844 H   0  0  0  0  0  0  0  0  0  0  0  0
   14.8029  -21.6160   -4.1211 H   0  0  0  0  0  0  0  0  0  0  0  0
   14.8527  -23.2949   -3.1770 H   0  0  0  0  0  0  0  0  0  0  0  0
   17.0182  -23.1906   -4.1626 H   0  0  0  0  0  0  0  0  0  0  0  0
   18.0650  -24.6917   -2.8509 H   0  0  0  0  0  0  0  0  0  0  0  0
   16.2497  -23.6706   -1.2979 H   0  0  0  0  0  0  0  0  0  0  0  0
   16.5573  -24.0424   -5.3323 H   0  0  0  0  0  0  0  0  0  0  0  0
   15.9067  -22.6939   -6.8058 H   0  0  0  0  0  0  0  0  0  0  0  0
   17.4329  -25.2372   -5.6927 H   0  0  0  0  0  0  0  0  0  0  0  0
   15.0256  -21.8111   -9.1156 H   0  0  0  0  0  0  0  0  0  0  0  0
   19.3263  -24.6672  -10.7266 H   0  0  0  0  0  0  0  0  0  0  0  0
  1  2  1  0
  2  3  1  0
  3  4  1  0
  2  5  1  0
  5  6  1  0
  6  7  1  0
  6  8  1  0
  8  9  1  0
  8 10  1  0
 10 11  1  0
  1 12  1  0
  1 13  1  0
  1 14  1  0
  2 15  1  0
  3 16  1  0
  3 17  1  0
  4 18  1  0
  4 19  1  0
  5 20  1  0
  5 21  1  0
  6 22  1  0
  9 23  1  0
 11 24  1  0
M  RAD  2   7   2   8   2
M  END
