
     RDKit          2D

 20 23  0  0  0  0  0  0  0  0999 V2000
   16.7229  -20.2291  -11.2065 C   0  0  0  0  0  0  0  0  0  0  0  0
   17.4406  -19.5078  -10.1045 C   0  0  0  0  0  0  0  0  0  0  0  0
   16.6604  -20.7527   -9.8023 C   0  0  0  0  0  0  0  0  0  0  0  0
   16.8238  -20.9647   -8.3263 O   0  0  0  0  0  0  0  0  0  0  0  0
   15.9722  -22.1967   -8.4090 C   0  0  0  0  0  0  0  0  0  0  0  0
   15.1919  -23.4416   -8.1067 C   0  0  0  0  0  0  0  0  0  0  0  0
   15.9097  -22.7203   -7.0047 C   0  0  0  0  0  0  0  0  0  0  0  0
   15.8087  -21.9848   -9.8849 C   0  0  0  0  0  0  0  0  0  0  0  0
   15.4304  -22.0989  -11.3319 C   0  0  0  0  0  0  0  0  0  0  0  0
   14.9438  -23.1200  -10.3467 O   0  0  0  0  0  0  0  0  0  0  0  0
   17.0774  -19.3488  -12.3682 H   0  0  0  0  0  0  0  0  0  0  0  0
   16.2930  -20.7247  -11.6594 H   0  0  0  0  0  0  0  0  0  0  0  0
   17.9487  -19.1792   -8.7319 H   0  0  0  0  0  0  0  0  0  0  0  0
   18.0445  -18.3770  -10.8834 H   0  0  0  0  0  0  0  0  0  0  0  0
   14.6839  -23.7702   -9.4793 H   0  0  0  0  0  0  0  0  0  0  0  0
   14.5881  -24.5725   -7.3278 H   0  0  0  0  0  0  0  0  0  0  0  0
   15.5552  -23.6006   -5.8431 H   0  0  0  0  0  0  0  0  0  0  0  0
   16.7506  -21.6933   -6.3061 H   0  0  0  0  0  0  0  0  0  0  0  0
   15.7682  -21.4840  -11.7103 H   0  0  0  0  0  0  0  0  0  0  0  0
   14.8080  -22.6320  -12.5883 H   0  0  0  0  0  0  0  0  0  0  0  0
  1  2  1  0
  2  3  1  0
  3  4  1  0
  4  5  1  0
  5  6  1  0
  6  7  1  0
  5  8  1  0
  8  9  1  0
  9 10  1  0
  3  1  1  0
  7  5  1  0
 10  8  1  0
  8  3  1  0
  1 11  1  0
  1 12  1  0
  2 13  1  0
  2 14  1  0
  6 15  1  0
  6 16  1  0
  7 17  1  0
  7 18  1  0
  9 19  1  0
  9 20  1  0
M  END
