
     RDKit          2D

 35 36  0  0  0  0  0  0  0  0999 V2000
   -0.8518   18.4802   -1.1619 C   0  0  0  0  0  0  0  0  0  0  0  0
   -1.5045   18.5448    0.1871 C   0  0  0  0  0  0  0  0  0  0  0  0
   -1.7421   19.3391    1.4372 C   0  0  0  0  0  0  0  0  0  0  0  0
   -1.4891   20.6107    2.1915 C   0  0  0  0  0  0  0  0  0  0  0  0
   -0.8259   21.9560    2.2105 C   0  0  0  0  0  0  0  0  0  0  0  0
   -1.3577   22.2785    3.5754 C   0  0  0  0  0  0  0  0  0  0  0  0
   -1.0267   23.5928    4.2180 C   0  0  0  0  0  0  0  0  0  0  0  0
   -0.1639   24.5847    3.4957 C   0  0  0  0  0  0  0  0  0  0  0  0
    0.3680   24.2622    2.1307 C   0  0  0  0  0  0  0  0  0  0  0  0
    0.0369   22.9479    1.4881 C   0  0  0  0  0  0  0  0  0  0  0  0
    0.8255   23.2713    0.2537 C   0  0  0  0  0  0  0  0  0  0  0  0
    1.2894   22.8237   -1.1006 C   0  0  0  0  0  0  0  0  0  0  0  0
    1.2813   21.7471   -2.1452 C   0  0  0  0  0  0  0  0  0  0  0  0
    0.8039   20.3834   -2.5481 C   0  0  0  0  0  0  0  0  0  0  0  0
    0.0087   19.1655   -2.1816 C   0  0  0  0  0  0  0  0  0  0  0  0
   -1.2208   17.1489   -1.7465 H   0  0  0  0  0  0  0  0  0  0  0  0
   -2.2412   17.2500    0.3627 H   0  0  0  0  0  0  0  0  0  0  0  0
   -2.4275   19.1303    2.5813 H   0  0  0  0  0  0  0  0  0  0  0  0
   -2.4559   18.0244    1.5481 H   0  0  0  0  0  0  0  0  0  0  0  0
   -1.9017   21.1455    3.5307 H   0  0  0  0  0  0  0  0  0  0  0  0
   -2.2699   19.9226    3.0513 H   0  0  0  0  0  0  0  0  0  0  0  0
   -2.2282   21.4093    4.4336 H   0  0  0  0  0  0  0  0  0  0  0  0
   -1.5585   23.9154    5.5830 H   0  0  0  0  0  0  0  0  0  0  0  0
    0.1671   25.8990    4.1383 H   0  0  0  0  0  0  0  0  0  0  0  0
    1.2102   25.3618    1.5550 H   0  0  0  0  0  0  0  0  0  0  0  0
    1.5613   24.3264   -0.1560 H   0  0  0  0  0  0  0  0  0  0  0  0
    1.0211   24.5053    1.0838 H   0  0  0  0  0  0  0  0  0  0  0  0
    2.0540   23.3664   -2.0720 H   0  0  0  0  0  0  0  0  0  0  0  0
    1.8503   24.0475   -0.9999 H   0  0  0  0  0  0  0  0  0  0  0  0
    1.8320   21.6051   -3.3695 H   0  0  0  0  0  0  0  0  0  0  0  0
    2.0490   22.6957   -2.7227 H   0  0  0  0  0  0  0  0  0  0  0  0
    0.9659   19.6019   -3.6368 H   0  0  0  0  0  0  0  0  0  0  0  0
    1.5346   20.7555   -3.6206 H   0  0  0  0  0  0  0  0  0  0  0  0
   -0.3974   17.8204   -2.7067 H   0  0  0  0  0  0  0  0  0  0  0  0
    0.4704   18.8431   -3.4085 H   0  0  0  0  0  0  0  0  0  0  0  0
  1  2  2  0
  2  3  1  0
  3  4  1  0
  4  5  1  0
  5  6  2  0
  6  7  1  0
  7  8  2  0
  8  9  1  0
  9 10  2  0
 10 11  1  0
 11 12  1  0
 12 13  1  0
 13 14  1  0
 14 15  1  0
 15  1  1  0
 10  5  1  0
  1 16  1  0
  2 17  1  0
  3 18  1  0
  3 19  1  0
  4 20  1  0
  4 21  1  0
  6 22  1  0
  7 23  1  0
  8 24  1  0
  9 25  1  0
 11 26  1  0
 11 27  1  0
 12 28  1  0
 12 29  1  0
 13 30  1  0
 13 31  1  0
 14 32  1  0
 14 33  1  0
 15 34  1  0
 15 35  1  0
M  END
