
     RDKit          2D

 83 85  0  0  0  0  0  0  0  0999 V2000
   -7.0247   27.0499   10.7911 C   0  0  0  0  0  0  0  0  0  0  0  0
   -5.6022   27.3416   10.4150 C   0  0  0  0  0  0  0  0  0  0  0  0
   -4.1797   27.6333   10.0388 C   0  0  0  0  0  0  0  0  0  0  0  0
   -2.7573   27.9251    9.6626 C   0  0  0  0  0  0  0  0  0  0  0  0
   -1.3348   28.2168    9.2864 C   0  0  0  0  0  0  0  0  0  0  0  0
   -2.9272   27.1289    8.4027 C   0  0  0  0  0  0  0  0  0  0  0  0
   -3.0971   26.3327    7.1429 C   0  0  0  0  0  0  0  0  0  0  0  0
   -3.2670   25.5365    5.8831 C   0  0  0  0  0  0  0  0  0  0  0  0
   -1.7681   25.5758    5.8427 C   0  0  0  0  0  0  0  0  0  0  0  0
   -1.3175   24.8305    4.6215 C   0  0  0  0  0  0  0  0  0  0  0  0
   -0.5795   24.1604    3.5006 C   0  0  0  0  0  0  0  0  0  0  0  0
    0.1585   23.4903    2.3797 C   0  0  0  0  0  0  0  0  0  0  0  0
    0.8964   22.8202    1.2589 C   0  0  0  0  0  0  0  0  0  0  0  0
    1.4634   23.9175    2.9836 C   0  0  0  0  0  0  0  0  0  0  0  0
    2.2014   23.2464    1.8633 O   0  0  0  0  0  0  0  0  0  0  0  0
    2.7684   24.3447    3.5873 C   0  0  0  0  0  0  0  0  0  0  0  0
    4.0734   24.7719    4.1911 C   0  0  0  0  0  0  0  0  0  0  0  0
    3.3355   25.4389    5.3140 O   0  0  0  0  0  0  0  0  0  0  0  0
    5.3783   25.1991    4.7949 C   0  0  0  0  0  0  0  0  0  0  0  0
    6.1172   24.5023    3.6910 O   0  0  0  0  0  0  0  0  0  0  0  0
    6.6833   25.6262    5.3986 C   0  0  0  0  0  0  0  0  0  0  0  0
    6.1831   26.3618    6.6065 C   0  0  0  0  0  0  0  0  0  0  0  0
    7.1570   26.9929    7.5569 C   0  0  0  0  0  0  0  0  0  0  0  0
    6.2036   27.5800    8.5551 C   0  0  0  0  0  0  0  0  0  0  0  0
    8.4619   27.4200    8.1607 C   0  0  0  0  0  0  0  0  0  0  0  0
    9.7669   27.8472    8.7645 C   0  0  0  0  0  0  0  0  0  0  0  0
    7.6571   26.2574    6.3491 C   0  0  0  0  0  0  0  0  0  0  0  0
    9.1312   26.1530    6.0917 C   0  0  0  0  0  0  0  0  0  0  0  0
   -2.5380   24.3306    3.9070 C   0  0  0  0  0  0  0  0  0  0  0  0
   -3.7428   24.7669    4.6867 C   0  0  0  0  0  0  0  0  0  0  0  0
   -5.1067   25.0550    5.2404 C   0  0  0  0  0  0  0  0  0  0  0  0
   -8.4472   26.7582   11.1672 H   0  0  0  0  0  0  0  0  0  0  0  0
   -6.5694   26.5616   12.1344 H   0  0  0  0  0  0  0  0  0  0  0  0
   -7.4800   27.5382    9.4479 H   0  0  0  0  0  0  0  0  0  0  0  0
   -6.0579   27.8338    9.0733 H   0  0  0  0  0  0  0  0  0  0  0  0
   -5.1465   26.8495   11.7566 H   0  0  0  0  0  0  0  0  0  0  0  0
   -4.5573   28.0021    9.3274 H   0  0  0  0  0  0  0  0  0  0  0  0
   -3.7101   26.9683   11.2986 H   0  0  0  0  0  0  0  0  0  0  0  0
   -2.5874   28.7212   10.9224 H   0  0  0  0  0  0  0  0  0  0  0  0
    0.0876   28.5085    8.9102 H   0  0  0  0  0  0  0  0  0  0  0  0
   -1.4578   29.5870    9.8842 H   0  0  0  0  0  0  0  0  0  0  0  0
   -1.1604   27.4348    8.9090 H   0  0  0  0  0  0  0  0  0  0  0  0
   -2.0661   27.0314    8.2197 H   0  0  0  0  0  0  0  0  0  0  0  0
   -3.8128   27.1118    8.4044 H   0  0  0  0  0  0  0  0  0  0  0  0
   -2.2133   26.2882    7.1804 H   0  0  0  0  0  0  0  0  0  0  0  0
   -4.5842   26.5065    7.2336 H   0  0  0  0  0  0  0  0  0  0  0  0
   -4.6799   25.7587    6.3350 H   0  0  0  0  0  0  0  0  0  0  0  0
   -0.2991   25.7798    6.0676 H   0  0  0  0  0  0  0  0  0  0  0  0
   -1.7447   26.0464    6.5928 H   0  0  0  0  0  0  0  0  0  0  0  0
    0.0573   25.1903    5.1016 H   0  0  0  0  0  0  0  0  0  0  0  0
    0.5417   25.0484    3.9526 H   0  0  0  0  0  0  0  0  0  0  0  0
   -1.7007   23.2723    3.0486 H   0  0  0  0  0  0  0  0  0  0  0  0
   -1.1465   23.0631    1.7759 H   0  0  0  0  0  0  0  0  0  0  0  0
    1.6344   22.1501    0.1380 H   0  0  0  0  0  0  0  0  0  0  0  0
   -0.4085   22.3903    0.6567 H   0  0  0  0  0  0  0  0  0  0  0  0
    2.3410   23.0751    1.5719 H   0  0  0  0  0  0  0  0  0  0  0  0
    0.8900   24.6357    4.1690 H   0  0  0  0  0  0  0  0  0  0  0  0
    3.6878   23.1836    1.6712 H   0  0  0  0  0  0  0  0  0  0  0  0
    3.5390   24.4459    2.3044 H   0  0  0  0  0  0  0  0  0  0  0  0
    2.1523   24.2952    4.9540 H   0  0  0  0  0  0  0  0  0  0  0  0
    4.8112   24.1049    3.0683 H   0  0  0  0  0  0  0  0  0  0  0  0
    3.9345   26.1428    6.4953 H   0  0  0  0  0  0  0  0  0  0  0  0
    4.8041   25.9427    5.9641 H   0  0  0  0  0  0  0  0  0  0  0  0
    7.6041   24.4241    3.5088 H   0  0  0  0  0  0  0  0  0  0  0  0
    7.6367   25.0391    4.4005 H   0  0  0  0  0  0  0  0  0  0  0  0
    4.7534   26.5616    7.0139 H   0  0  0  0  0  0  0  0  0  0  0  0
    5.2501   28.1671    9.5532 H   0  0  0  0  0  0  0  0  0  0  0  0
    7.1482   27.6004    9.7200 H   0  0  0  0  0  0  0  0  0  0  0  0
    5.1347   27.6315    7.5039 H   0  0  0  0  0  0  0  0  0  0  0  0
    7.8897   28.1114    9.3625 H   0  0  0  0  0  0  0  0  0  0  0  0
    9.3524   26.8328    7.1060 H   0  0  0  0  0  0  0  0  0  0  0  0
   11.0719   28.2744    9.3683 H   0  0  0  0  0  0  0  0  0  0  0  0
   10.4315   26.6325    8.1876 H   0  0  0  0  0  0  0  0  0  0  0  0
    9.1023   29.0620    9.3414 H   0  0  0  0  0  0  0  0  0  0  0  0
   10.6053   26.0486    5.8344 H   0  0  0  0  0  0  0  0  0  0  0  0
    9.4050   26.9336    7.3430 H   0  0  0  0  0  0  0  0  0  0  0  0
    9.0392   25.3655    4.8184 H   0  0  0  0  0  0  0  0  0  0  0  0
   -3.5508   23.7124    2.9894 H   0  0  0  0  0  0  0  0  0  0  0  0
   -1.6891   23.7007    2.8427 H   0  0  0  0  0  0  0  0  0  0  0  0
   -4.5038   24.0576    3.6061 H   0  0  0  0  0  0  0  0  0  0  0  0
   -6.4707   25.3431    5.7942 H   0  0  0  0  0  0  0  0  0  0  0  0
   -5.7286   24.3110    4.0959 H   0  0  0  0  0  0  0  0  0  0  0  0
   -4.6559   25.8285    6.4439 H   0  0  0  0  0  0  0  0  0  0  0  0
  1  2  1  0
  2  3  1  0
  3  4  1  0
  4  5  1  0
  4  6  1  0
  6  7  1  0
  7  8  1  0
  8  9  1  0
  9 10  1  0
 10 11  1  0
 11 12  1  0
 12 13  1  0
 12 14  1  0
 14 15  1  0
 14 16  1  0
 16 17  1  0
 17 18  1  0
 17 19  1  0
 19 20  1  0
 19 21  1  0
 21 22  1  0
 22 23  1  0
 23 24  1  0
 23 25  1  0
 25 26  1  0
 23 27  1  0
 27 28  1  0
 10 29  1  0
 29 30  1  0
 30 31  1  0
 30  8  1  0
 27 21  1  0
 27 22  1  0
  1 32  1  0
  1 33  1  0
  1 34  1  0
  2 35  1  0
  2 36  1  0
  3 37  1  0
  3 38  1  0
  4 39  1  0
  5 40  1  0
  5 41  1  0
  5 42  1  0
  6 43  1  0
  6 44  1  0
  7 45  1  0
  7 46  1  0
  8 47  1  0
  9 48  1  0
  9 49  1  0
 10 50  1  0
 11 51  1  0
 11 52  1  0
 12 53  1  0
 13 54  1  0
 13 55  1  0
 13 56  1  0
 14 57  1  0
 15 58  1  0
 16 59  1  0
 16 60  1  0
 17 61  1  0
 18 62  1  0
 19 63  1  0
 20 64  1  0
 21 65  1  0
 22 66  1  0
 24 67  1  0
 24 68  1  0
 24 69  1  0
 25 70  1  0
 25 71  1  0
 26 72  1  0
 26 73  1  0
 26 74  1  0
 28 75  1  0
 28 76  1  0
 28 77  1  0
 29 78  1  0
 29 79  1  0
 30 80  1  0
 31 81  1  0
 31 82  1  0
 31 83  1  0
M  END
