
     RDKit          2D

 40 41  0  0  0  0  0  0  0  0999 V2000
   18.7843  -17.3055  -11.6188 C   0  0  0  0  0  0  0  0  0  0  0  0
   17.8497  -18.4481  -11.3518 C   0  0  0  0  0  0  0  0  0  0  0  0
   17.1718  -18.2008  -12.6668 O   0  0  0  0  0  0  0  0  0  0  0  0
   16.9151  -19.5905  -11.0849 C   0  0  0  0  0  0  0  0  0  0  0  0
   15.9805  -20.7330  -10.8179 C   0  0  0  0  0  0  0  0  0  0  0  0
   15.0459  -21.8756  -10.5509 C   0  0  0  0  0  0  0  0  0  0  0  0
   13.8975  -22.7412  -10.9772 N   0  0  0  0  0  2  0  0  0  0  0  0
   13.2967  -23.9995  -10.0715 C   0  0  0  0  0  0  0  0  0  0  0  0
   14.3386  -23.6718   -9.0434 C   0  0  0  0  0  0  0  0  0  0  0  0
   14.1871  -24.6377   -7.9059 C   0  0  0  0  0  0  0  0  0  0  0  0
   15.3355  -23.7721   -7.4795 C   0  0  0  0  0  0  0  0  0  0  0  0
   16.0627  -22.6044   -8.0778 C   0  0  0  0  0  0  0  0  0  0  0  0
   15.9428  -21.8188   -9.3500 C   0  0  0  0  0  0  0  0  0  0  0  0
   17.0831  -21.1860   -8.6090 C   0  0  0  0  0  0  0  0  0  0  0  0
   13.0516  -25.5624   -8.2310 C   0  0  0  0  0  0  0  0  0  0  0  0
   12.5013  -25.1679   -9.5695 Sb  0  0  0  0  0  2  0  0  0  0  0  0
   19.7189  -16.1630  -11.8857 H   0  0  0  0  0  0  0  0  0  0  0  0
   19.4889  -17.5792  -10.3231 H   0  0  0  0  0  0  0  0  0  0  0  0
   18.1989  -16.8946  -12.9372 H   0  0  0  0  0  0  0  0  0  0  0  0
   18.5276  -18.6954  -10.0368 H   0  0  0  0  0  0  0  0  0  0  0  0
   17.5178  -17.1471  -13.6768 H   0  0  0  0  0  0  0  0  0  0  0  0
   17.7029  -19.6977   -9.8129 H   0  0  0  0  0  0  0  0  0  0  0  0
   16.2362  -19.3422  -12.3992 H   0  0  0  0  0  0  0  0  0  0  0  0
   16.6914  -20.7660   -9.4975 H   0  0  0  0  0  0  0  0  0  0  0  0
   15.3790  -20.5595  -12.1810 H   0  0  0  0  0  0  0  0  0  0  0  0
   14.6328  -21.3408  -11.8901 H   0  0  0  0  0  0  0  0  0  0  0  0
   13.0870  -23.2843  -11.3733 H   0  0  0  0  0  0  0  0  0  0  0  0
   14.7247  -22.5900  -10.0081 H   0  0  0  0  0  0  0  0  0  0  0  0
   15.4612  -23.1180   -8.2169 H   0  0  0  0  0  0  0  0  0  0  0  0
   14.5771  -24.7319   -7.2170 H   0  0  0  0  0  0  0  0  0  0  0  0
   15.3137  -24.2495   -6.8416 H   0  0  0  0  0  0  0  0  0  0  0  0
   16.3249  -23.5534   -6.3735 H   0  0  0  0  0  0  0  0  0  0  0  0
   16.8497  -22.7108   -6.8052 H   0  0  0  0  0  0  0  0  0  0  0  0
   17.2175  -21.8257   -7.5207 H   0  0  0  0  0  0  0  0  0  0  0  0
   16.7599  -20.6517   -9.8192 H   0  0  0  0  0  0  0  0  0  0  0  0
   18.2235  -20.5531   -7.8679 H   0  0  0  0  0  0  0  0  0  0  0  0
   17.4036  -20.1347   -9.6298 H   0  0  0  0  0  0  0  0  0  0  0  0
   17.0407  -22.0829   -7.4074 H   0  0  0  0  0  0  0  0  0  0  0  0
   13.3788  -26.1771   -6.9024 H   0  0  0  0  0  0  0  0  0  0  0  0
   11.9846  -26.6156   -8.2784 H   0  0  0  0  0  0  0  0  0  0  0  0
  1  2  1  0
  2  3  1  0
  2  4  1  0
  4  5  1  0
  5  6  1  0
  6  7  1  0
  7  8  1  0
  8  9  1  0
  9 10  1  0
 10 11  1  0
 11 12  1  0
 12 13  1  0
 13 14  1  0
 10 15  1  0
 15 16  1  0
 13  6  1  0
 16  8  1  0
  1 17  1  0
  1 18  1  0
  1 19  1  0
  2 20  1  0
  3 21  1  0
  4 22  1  0
  4 23  1  0
  5 24  1  0
  5 25  1  0
  6 26  1  0
  8 27  1  0
  9 28  1  0
  9 29  1  0
 10 30  1  0
 11 31  1  0
 11 32  1  0
 12 33  1  0
 12 34  1  0
 13 35  1  0
 14 36  1  0
 14 37  1  0
 14 38  1  0
 15 39  1  0
 15 40  1  0
M  RAD  2   7   2  16   2
M  END
