
     RDKit          2D

 27 27  0  0  0  0  0  0  0  0999 V2000
    0.9702   25.6737    4.9654 C   0  0  0  0  0  0  0  0  0  0  0  0
    2.3012   25.9595    4.3355 C   0  0  0  0  0  0  0  0  0  0  0  0
    1.8925   26.0561    2.8954 O   0  0  0  0  0  0  0  0  0  0  0  0
    3.1722   25.9622    5.5567 C   0  0  0  0  0  0  0  0  0  0  0  0
    4.4003   26.0638    6.4119 C   0  0  0  0  0  0  0  0  0  0  0  0
    5.6285   26.1654    7.2670 N   0  0  0  0  0  0  0  0  0  0  0  0
    3.7741   26.2118    4.2056 C   0  0  0  0  0  0  0  0  0  0  0  0
    3.8769   26.3960    2.7206 P   0  0  0  0  0  0  0  0  0  0  0  0
    5.2080   26.6819    2.0907 O   0  0  0  0  0  0  0  0  0  0  0  0
    2.6488   26.2944    1.8654 P   0  0  0  0  0  0  0  0  0  0  0  0
    2.7516   26.4787    0.3802 O   0  0  0  0  0  0  0  0  0  0  0  0
    4.0825   26.7645   -0.2497 O   0  0  0  0  0  0  0  0  0  0  0  0
    4.1852   26.9487   -1.7348 O   0  0  0  0  0  0  0  0  0  0  0  0
    5.5162   27.2345   -2.3648 O   0  0  0  0  0  0  0  0  0  0  0  0
   -0.3607   25.3879    5.5953 H   0  0  0  0  0  0  0  0  0  0  0  0
    1.4046   25.6002    6.2415 H   0  0  0  0  0  0  0  0  0  0  0  0
    0.3206   25.7209    3.6142 H   0  0  0  0  0  0  0  0  0  0  0  0
    0.4223   25.8424    2.6879 H   0  0  0  0  0  0  0  0  0  0  0  0
    2.3704   25.7135    6.6139 H   0  0  0  0  0  0  0  0  0  0  0  0
    3.5729   25.7901    7.6327 H   0  0  0  0  0  0  0  0  0  0  0  0
    5.2742   26.3195    5.4152 H   0  0  0  0  0  0  0  0  0  0  0  0
    5.5257   25.9812    8.7521 H   0  0  0  0  0  0  0  0  0  0  0  0
    6.9594   26.4512    6.6371 H   0  0  0  0  0  0  0  0  0  0  0  0
    5.0972   26.4042    4.3925 H   0  0  0  0  0  0  0  0  0  0  0  0
    5.3107   26.8661    0.6056 H   0  0  0  0  0  0  0  0  0  0  0  0
    1.1734   26.0447    1.9692 H   0  0  0  0  0  0  0  0  0  0  0  0
    5.6189   27.4187   -3.8499 H   0  0  0  0  0  0  0  0  0  0  0  0
  1  2  1  0
  2  3  1  0
  2  4  1  0
  4  5  1  0
  5  6  1  0
  4  7  1  0
  7  8  1  0
  8  9  1  0
  8 10  1  0
 10 11  1  0
 11 12  1  0
 12 13  1  0
 13 14  1  0
  7  2  1  0
  1 15  1  0
  1 16  1  0
  1 17  1  0
  3 18  1  0
  4 19  1  0
  5 20  1  0
  5 21  1  0
  6 22  1  0
  6 23  1  0
  7 24  1  0
  9 25  1  0
 10 26  1  0
 14 27  1  0
M  END
