
     RDKit          2D

 35 38  0  0  0  0  0  0  0  0999 V2000
    9.1182  -19.6517   -9.8643 C   0  0  0  0  0  0  0  0  0  0  0  0
    9.4276  -19.4456   -8.4110 C   0  0  0  0  0  0  0  0  0  0  0  0
    9.7369  -19.2393   -6.9578 C   0  0  0  0  0  0  0  0  0  0  0  0
   10.4127  -20.5422   -6.6480 N   0  0  0  0  0  0  0  0  0  0  0  0
   10.2436  -19.5105   -5.5723 C   0  0  0  0  0  0  0  0  0  0  0  0
    9.8512  -18.2303   -4.8962 C   0  0  0  0  0  0  0  0  0  0  0  0
    9.6822  -17.1987   -3.8206 C   0  0  0  0  0  0  0  0  0  0  0  0
   10.3580  -18.5014   -3.5107 C   0  0  0  0  0  0  0  0  0  0  0  0
   10.9603  -19.8735   -3.5792 B   0  0  0  0  0  0  0  0  0  0  0  0
   11.3235  -19.7866   -2.1265 C   0  0  0  0  0  0  0  0  0  0  0  0
   11.6867  -19.6996   -0.6737 C   0  0  0  0  0  0  0  0  0  0  0  0
   12.2890  -21.0717   -0.7422 C   0  0  0  0  0  0  0  0  0  0  0  0
   12.6523  -20.9848    0.7106 C   0  0  0  0  0  0  0  0  0  0  0  0
   12.0499  -19.6127    0.7791 O   0  0  0  0  0  0  0  0  0  0  0  0
   10.7212  -18.4145   -2.0579 C   0  0  0  0  0  0  0  0  0  0  0  0
    8.8089  -19.8579  -11.3174 H   0  0  0  0  0  0  0  0  0  0  0  0
    9.7614  -21.0057   -9.8090 H   0  0  0  0  0  0  0  0  0  0  0  0
    8.4749  -18.2977   -9.9194 H   0  0  0  0  0  0  0  0  0  0  0  0
   10.0596  -20.8046   -8.3528 H   0  0  0  0  0  0  0  0  0  0  0  0
    8.7955  -18.0865   -8.4692 H   0  0  0  0  0  0  0  0  0  0  0  0
    9.1223  -17.8712   -6.9401 H   0  0  0  0  0  0  0  0  0  0  0  0
   10.9004  -21.8900   -7.0902 H   0  0  0  0  0  0  0  0  0  0  0  0
   10.6851  -20.0705   -4.8940 H   0  0  0  0  0  0  0  0  0  0  0  0
    9.1783  -17.3768   -5.9300 H   0  0  0  0  0  0  0  0  0  0  0  0
    8.9805  -16.1246   -4.5978 H   0  0  0  0  0  0  0  0  0  0  0  0
    9.6710  -16.3978   -2.5522 H   0  0  0  0  0  0  0  0  0  0  0  0
   11.1250  -20.6180   -4.2014 H   0  0  0  0  0  0  0  0  0  0  0  0
   11.6504  -20.5970   -2.2711 H   0  0  0  0  0  0  0  0  0  0  0  0
   11.3598  -18.8892   -0.5289 H   0  0  0  0  0  0  0  0  0  0  0  0
   12.8914  -22.4437   -0.8107 H   0  0  0  0  0  0  0  0  0  0  0  0
   12.1195  -21.2214   -1.5986 H   0  0  0  0  0  0  0  0  0  0  0  0
   13.0155  -20.8979    2.1633 H   0  0  0  0  0  0  0  0  0  0  0  0
   13.2546  -22.3568    0.6421 H   0  0  0  0  0  0  0  0  0  0  0  0
   10.1677  -17.0421   -1.8129 H   0  0  0  0  0  0  0  0  0  0  0  0
   10.8907  -18.2649   -1.2016 H   0  0  0  0  0  0  0  0  0  0  0  0
  1  2  1  0
  2  3  1  0
  3  4  1  0
  4  5  1  0
  5  6  1  0
  6  7  1  0
  7  8  1  0
  8  9  1  0
  9 10  1  0
 10 11  1  0
 11 12  1  0
 12 13  1  0
 13 14  1  0
 10 15  1  0
  5  3  1  0
  8  6  1  0
 14 11  1  0
 15  8  1  0
  1 16  1  0
  1 17  1  0
  1 18  1  0
  2 19  1  0
  2 20  1  0
  3 21  1  0
  4 22  1  0
  5 23  1  0
  6 24  1  0
  7 25  1  0
  7 26  1  0
  9 27  1  0
 10 28  1  0
 11 29  1  0
 12 30  1  0
 12 31  1  0
 13 32  1  0
 13 33  1  0
 15 34  1  0
 15 35  1  0
M  END
