
     RDKit          2D

 71 73  0  0  0  0  0  0  0  0999 V2000
   14.3741  -19.7320  -12.2917 C   0  0  0  0  0  0  0  0  0  0  0  0
   15.6235  -20.2804  -11.6686 C   0  0  0  0  0  0  0  0  0  0  0  0
   15.5835  -20.8447  -10.2794 C   0  0  0  0  0  0  0  0  0  0  0  0
   15.5433  -21.4090   -8.8902 C   0  0  0  0  0  0  0  0  0  0  0  0
   15.5033  -21.9734   -7.5010 C   0  0  0  0  0  0  0  0  0  0  0  0
   15.4633  -22.5377   -6.1118 C   0  0  0  0  0  0  0  0  0  0  0  0
   15.4233  -23.1021   -4.7226 C   0  0  0  0  0  0  0  0  0  0  0  0
   13.9572  -22.7953   -4.6403 C   0  0  0  0  0  0  0  0  0  0  0  0
   13.9172  -23.3597   -3.2510 C   0  0  0  0  0  0  0  0  0  0  0  0
   15.3832  -23.6664   -3.3334 C   0  0  0  0  0  0  0  0  0  0  0  0
   17.0088  -21.7185   -8.9737 C   0  0  0  0  0  0  0  0  0  0  0  0
   18.4741  -22.0280   -9.0571 C   0  0  0  0  0  0  0  0  0  0  0  0
   19.9395  -22.3375   -9.1407 C   0  0  0  0  0  0  0  0  0  0  0  0
   19.9006  -22.8967   -7.7492 O   0  0  0  0  0  0  0  0  0  0  0  0
   21.4048  -22.6470   -9.2241 C   0  0  0  0  0  0  0  0  0  0  0  0
   21.1130  -23.1398   -7.8377 C   0  0  0  0  0  0  0  0  0  0  0  0
   22.2112  -23.7337   -7.0063 C   0  0  0  0  0  0  0  0  0  0  0  0
   23.6011  -23.8347   -7.5612 C   0  0  0  0  0  0  0  0  0  0  0  0
   23.8929  -23.3418   -8.9475 C   0  0  0  0  0  0  0  0  0  0  0  0
   24.6584  -23.0158  -10.1956 C   0  0  0  0  0  0  0  0  0  0  0  0
   22.7948  -22.7479   -9.7789 C   0  0  0  0  0  0  0  0  0  0  0  0
   17.0463  -21.1647  -10.3672 C   0  0  0  0  0  0  0  0  0  0  0  0
   17.5828  -20.7502  -11.7052 C   0  0  0  0  0  0  0  0  0  0  0  0
   18.4959  -21.3733  -10.6914 C   0  0  0  0  0  0  0  0  0  0  0  0
   19.7837  -21.3644  -11.4604 C   0  0  0  0  0  0  0  0  0  0  0  0
   21.1180  -21.8657  -10.9928 O   0  0  0  0  0  0  0  0  0  0  0  0
   19.8214  -20.8107  -12.8540 C   0  0  0  0  0  0  0  0  0  0  0  0
   19.8590  -20.2569  -14.2474 O   0  0  0  0  0  0  0  0  0  0  0  0
   21.2851  -21.1268  -12.9401 O   0  0  0  0  0  0  0  0  0  0  0  0
   14.4142  -19.1677  -13.6809 H   0  0  0  0  0  0  0  0  0  0  0  0
   13.0846  -19.7481  -11.5256 H   0  0  0  0  0  0  0  0  0  0  0  0
   16.8183  -20.1861  -12.5706 H   0  0  0  0  0  0  0  0  0  0  0  0
   16.3445  -20.9307  -10.5007 H   0  0  0  0  0  0  0  0  0  0  0  0
   14.1176  -20.5372  -10.1967 H   0  0  0  0  0  0  0  0  0  0  0  0
   14.0780  -21.0996   -8.8068 H   0  0  0  0  0  0  0  0  0  0  0  0
   14.0369  -21.6686   -7.4195 H   0  0  0  0  0  0  0  0  0  0  0  0
   16.9540  -22.3447   -7.4126 H   0  0  0  0  0  0  0  0  0  0  0  0
   14.0143  -22.1592   -6.1972 H   0  0  0  0  0  0  0  0  0  0  0  0
   16.9280  -22.8497   -6.1963 H   0  0  0  0  0  0  0  0  0  0  0  0
   16.8892  -23.4088   -4.8049 H   0  0  0  0  0  0  0  0  0  0  0  0
   12.4913  -22.4886   -4.5579 H   0  0  0  0  0  0  0  0  0  0  0  0
   13.8183  -22.1978   -6.0090 H   0  0  0  0  0  0  0  0  0  0  0  0
   13.8772  -23.9240   -1.8618 H   0  0  0  0  0  0  0  0  0  0  0  0
   12.4511  -23.0529   -3.1687 H   0  0  0  0  0  0  0  0  0  0  0  0
   16.8492  -23.9732   -3.4157 H   0  0  0  0  0  0  0  0  0  0  0  0
   15.3431  -24.2308   -1.9442 H   0  0  0  0  0  0  0  0  0  0  0  0
   17.1501  -22.3059   -7.6008 H   0  0  0  0  0  0  0  0  0  0  0  0
   18.2563  -22.5478   -7.6670 H   0  0  0  0  0  0  0  0  0  0  0  0
   18.8670  -21.5578  -10.4263 H   0  0  0  0  0  0  0  0  0  0  0  0
   19.9783  -21.7783  -10.5319 H   0  0  0  0  0  0  0  0  0  0  0  0
   18.7067  -22.9874   -6.8458 H   0  0  0  0  0  0  0  0  0  0  0  0
   21.3660  -22.0764  -10.6108 H   0  0  0  0  0  0  0  0  0  0  0  0
   20.3475  -23.4658   -6.5896 H   0  0  0  0  0  0  0  0  0  0  0  0
   19.6597  -22.7741   -7.9003 H   0  0  0  0  0  0  0  0  0  0  0  0
   22.9111  -24.3691   -5.8417 H   0  0  0  0  0  0  0  0  0  0  0  0
   21.0644  -23.8534   -6.0469 H   0  0  0  0  0  0  0  0  0  0  0  0
   25.0665  -24.1442   -7.6446 H   0  0  0  0  0  0  0  0  0  0  0  0
   23.8183  -24.4350   -6.2038 H   0  0  0  0  0  0  0  0  0  0  0  0
   25.2570  -23.8224   -8.5495 H   0  0  0  0  0  0  0  0  0  0  0  0
   25.4238  -22.6898  -11.4437 H   0  0  0  0  0  0  0  0  0  0  0  0
   25.9084  -23.5618   -9.5715 H   0  0  0  0  0  0  0  0  0  0  0  0
   23.5110  -22.4341  -10.9671 H   0  0  0  0  0  0  0  0  0  0  0  0
   22.0949  -22.1125  -10.9435 H   0  0  0  0  0  0  0  0  0  0  0  0
   23.8218  -22.5530  -10.8547 H   0  0  0  0  0  0  0  0  0  0  0  0
   15.7230  -20.6568  -10.8578 H   0  0  0  0  0  0  0  0  0  0  0  0
   16.4352  -20.1697  -12.4773 H   0  0  0  0  0  0  0  0  0  0  0  0
   18.4124  -20.4543  -12.9194 H   0  0  0  0  0  0  0  0  0  0  0  0
   19.2843  -22.0055   -9.5828 H   0  0  0  0  0  0  0  0  0  0  0  0
   18.3731  -20.4294  -12.9383 H   0  0  0  0  0  0  0  0  0  0  0  0
   21.1468  -20.2480  -15.0165 H   0  0  0  0  0  0  0  0  0  0  0  0
   22.0496  -20.8053  -14.1901 H   0  0  0  0  0  0  0  0  0  0  0  0
  1  2  2  3
  2  3  1  0
  3  4  1  0
  4  5  1  0
  5  6  1  0
  6  7  1  0
  7  8  1  0
  8  9  1  0
  9 10  1  0
  4 11  1  0
 11 12  1  0
 12 13  1  0
 13 14  1  0
 13 15  1  0
 15 16  1  0
 16 17  1  0
 17 18  1  0
 18 19  1  0
 19 20  1  0
 19 21  1  0
 11 22  1  0
 22 23  1  0
 23 24  1  0
 24 25  1  0
 25 26  2  0
 25 27  1  0
 27 28  1  0
 27 29  1  0
 10  7  1  0
 21 15  1  0
 24 22  1  0
  1 30  1  0
  1 31  1  0
  2 32  1  0
  3 33  1  0
  3 34  1  0
  4 35  1  0
  5 36  1  0
  5 37  1  0
  6 38  1  0
  6 39  1  0
  7 40  1  0
  8 41  1  0
  8 42  1  0
  9 43  1  0
  9 44  1  0
 10 45  1  0
 10 46  1  0
 11 47  1  0
 12 48  1  0
 12 49  1  0
 13 50  1  0
 14 51  1  0
 15 52  1  0
 16 53  1  0
 16 54  1  0
 17 55  1  0
 17 56  1  0
 18 57  1  0
 18 58  1  0
 19 59  1  0
 20 60  1  0
 20 61  1  0
 20 62  1  0
 21 63  1  0
 21 64  1  0
 22 65  1  0
 23 66  1  0
 23 67  1  0
 24 68  1  0
 27 69  1  0
 28 70  1  0
 29 71  1  0
M  END
