
     RDKit          2D

 34 38  0  0  0  0  0  0  0  0999 V2000
   19.1080  -19.2560  -16.2023 C   0  0  0  0  0  0  0  0  0  0  0  0
   19.1763  -19.0083  -14.7245 C   0  0  0  0  0  0  0  0  0  0  0  0
   19.2445  -18.7607  -13.2467 S   0  0  0  0  0  0  0  0  0  0  0  0
   18.1166  -19.7263  -13.0329 C   0  0  0  0  0  0  0  0  0  0  0  0
   18.1848  -19.4787  -11.5550 C   0  0  0  0  0  0  0  0  0  0  0  0
   17.0863  -20.3869  -11.0878 C   0  0  0  0  0  0  0  0  0  0  0  0
   16.7648  -20.4846   -9.6258 C   0  0  0  0  0  0  0  0  0  0  0  0
   15.9450  -21.0654   -8.5121 C   0  0  0  0  0  0  0  0  0  0  0  0
   15.1251  -21.6462   -7.3983 C   0  0  0  0  0  0  0  0  0  0  0  0
   14.3052  -22.2270   -6.2845 N   0  0  0  0  0  0  0  0  0  0  0  0
   16.7219  -20.2548   -7.5175 C   0  0  0  0  0  0  0  0  0  0  0  0
   17.5417  -19.6740   -8.6313 C   0  0  0  0  0  0  0  0  0  0  0  0
   17.8633  -19.5763  -10.0931 C   0  0  0  0  0  0  0  0  0  0  0  0
   18.0484  -19.9739  -14.5107 C   0  0  0  0  0  0  0  0  0  0  0  0
   16.9205  -20.9394  -14.2968 N   0  0  0  0  0  0  0  0  0  0  0  0
   17.9802  -20.2215  -15.9885 O   0  0  0  0  0  0  0  0  0  0  0  0
   19.0398  -19.5036  -17.6802 H   0  0  0  0  0  0  0  0  0  0  0  0
   20.2380  -18.2929  -16.4158 H   0  0  0  0  0  0  0  0  0  0  0  0
   18.5166  -19.7844  -16.2823 H   0  0  0  0  0  0  0  0  0  0  0  0
   20.3041  -18.0428  -14.9383 H   0  0  0  0  0  0  0  0  0  0  0  0
   17.0055  -20.6544  -12.6404 H   0  0  0  0  0  0  0  0  0  0  0  0
   19.3070  -18.4844  -11.5090 H   0  0  0  0  0  0  0  0  0  0  0  0
   16.2152  -21.2623  -11.9392 H   0  0  0  0  0  0  0  0  0  0  0  0
   15.1680  -21.8760   -9.5067 H   0  0  0  0  0  0  0  0  0  0  0  0
   14.3458  -22.4542   -8.3933 H   0  0  0  0  0  0  0  0  0  0  0  0
   15.7986  -20.9150   -6.2750 H   0  0  0  0  0  0  0  0  0  0  0  0
   13.2192  -23.2157   -6.5894 H   0  0  0  0  0  0  0  0  0  0  0  0
   14.5714  -21.8190   -4.8658 H   0  0  0  0  0  0  0  0  0  0  0  0
   17.4989  -19.4442   -6.5228 H   0  0  0  0  0  0  0  0  0  0  0  0
   16.0028  -20.7325   -6.2907 H   0  0  0  0  0  0  0  0  0  0  0  0
   18.5045  -18.7407   -7.9588 H   0  0  0  0  0  0  0  0  0  0  0  0
   16.2966  -21.6356  -15.4699 H   0  0  0  0  0  0  0  0  0  0  0  0
   16.1869  -21.4329  -13.0852 H   0  0  0  0  0  0  0  0  0  0  0  0
   16.9692  -21.1813  -16.5423 H   0  0  0  0  0  0  0  0  0  0  0  0
  1  2  1  0
  2  3  1  0
  3  4  1  0
  4  5  1  0
  5  6  1  0
  6  7  1  0
  7  8  1  0
  8  9  1  0
  9 10  1  0
  8 11  1  0
 11 12  1  0
 12 13  1  0
  4 14  1  0
 14 15  1  0
 14 16  1  0
 14  2  1  0
 13  5  1  0
 13  6  1  0
 12  7  1  0
 13  7  1  0
  1 17  1  0
  1 18  1  0
  1 19  1  0
  2 20  1  0
  4 21  1  0
  5 22  1  0
  6 23  1  0
  8 24  1  0
  9 25  1  0
  9 26  1  0
 10 27  1  0
 10 28  1  0
 11 29  1  0
 11 30  1  0
 12 31  1  0
 15 32  1  0
 15 33  1  0
 16 34  1  0
M  END
