
     RDKit          2D

 52 56  0  0  0  0  0  0  0  0999 V2000
    2.1989   22.0513    9.4923 C   0  0  0  0  0  0  0  0  0  0  0  0
    2.1337   20.6153    9.9207 C   0  0  0  0  0  0  0  0  0  0  0  0
    2.0686   19.1793   10.3492 C   0  0  0  0  0  0  0  0  0  0  0  0
    2.0034   17.7432   10.7777 C   0  0  0  0  0  0  0  0  0  0  0  0
    1.0492   17.4522    9.6575 C   0  0  0  0  0  0  0  0  0  0  0  0
    0.0950   17.1614    8.5373 N   0  0  0  0  0  0  0  0  0  0  0  0
    0.1601   18.5973    8.1089 C   0  0  0  0  0  0  0  0  0  0  0  0
    0.2252   20.0334    7.6804 C   0  0  0  0  0  0  0  0  0  0  0  0
    0.2904   21.4694    7.2520 C   0  0  0  0  0  0  0  0  0  0  0  0
    0.3555   22.9054    6.8235 C   0  0  0  0  0  0  0  0  0  0  0  0
    0.4206   24.3415    6.3950 C   0  0  0  0  0  0  0  0  0  0  0  0
    0.4858   25.7775    5.9665 C   0  0  0  0  0  0  0  0  0  0  0  0
    0.5509   27.2135    5.5381 C   0  0  0  0  0  0  0  0  0  0  0  0
    1.7595   27.4168    6.4031 C   0  0  0  0  0  0  0  0  0  0  0  0
    1.8245   28.8528    5.9746 O   0  0  0  0  0  0  0  0  0  0  0  0
    0.6161   28.6496    5.1096 C   0  0  0  0  0  0  0  0  0  0  0  0
   -0.5925   28.4463    4.2446 N   0  0  0  0  0  0  0  0  0  0  0  0
   -1.7128   27.5732    3.7623 C   0  0  0  0  0  0  0  0  0  0  0  0
   -2.6857   28.0942    2.7465 C   0  0  0  0  0  0  0  0  0  0  0  0
   -1.5654   28.9674    3.2288 C   0  0  0  0  0  0  0  0  0  0  0  0
   -1.4181   30.3615    2.6953 O   0  0  0  0  0  0  0  0  0  0  0  0
    1.1143   18.8883    9.2290 C   0  0  0  0  0  0  0  0  0  0  0  0
    2.2639   23.4873    9.0638 H   0  0  0  0  0  0  0  0  0  0  0  0
    3.1491   22.3433   10.6155 H   0  0  0  0  0  0  0  0  0  0  0  0
    1.2476   21.5864    8.4296 H   0  0  0  0  0  0  0  0  0  0  0  0
    1.1995   20.5002    8.7528 H   0  0  0  0  0  0  0  0  0  0  0  0
    3.0829   20.9076   11.0448 H   0  0  0  0  0  0  0  0  0  0  0  0
    3.0228   19.4701   11.4694 H   0  0  0  0  0  0  0  0  0  0  0  0
    2.9577   18.0342   11.8978 H   0  0  0  0  0  0  0  0  0  0  0  0
    1.9383   16.3072   11.2061 H   0  0  0  0  0  0  0  0  0  0  0  0
    0.9841   16.0162   10.0860 H   0  0  0  0  0  0  0  0  0  0  0  0
   -0.6259   15.9402    8.0482 H   0  0  0  0  0  0  0  0  0  0  0  0
   -0.7941   18.3064    6.9887 H   0  0  0  0  0  0  0  0  0  0  0  0
   -0.4081   20.0192    7.1964 H   0  0  0  0  0  0  0  0  0  0  0  0
   -0.4165   19.8331    7.2520 H   0  0  0  0  0  0  0  0  0  0  0  0
   -0.9172   21.2658    6.3858 H   0  0  0  0  0  0  0  0  0  0  0  0
    1.4810   21.4965    8.1639 H   0  0  0  0  0  0  0  0  0  0  0  0
   -0.8524   22.7020    5.9576 H   0  0  0  0  0  0  0  0  0  0  0  0
    1.5634   23.1090    7.6893 H   0  0  0  0  0  0  0  0  0  0  0  0
    1.8790   24.3794    6.7438 H   0  0  0  0  0  0  0  0  0  0  0  0
   -1.0377   24.3035    6.0462 H   0  0  0  0  0  0  0  0  0  0  0  0
   -0.6902   25.5607    5.0609 H   0  0  0  0  0  0  0  0  0  0  0  0
    1.6450   25.8177    6.9176 H   0  0  0  0  0  0  0  0  0  0  0  0
   -0.6576   27.0102    4.6731 H   0  0  0  0  0  0  0  0  0  0  0  0
    2.9679   27.6201    7.2680 H   0  0  0  0  0  0  0  0  0  0  0  0
    1.8421   26.0163    6.9337 H   0  0  0  0  0  0  0  0  0  0  0  0
    0.6812   30.0856    4.6811 H   0  0  0  0  0  0  0  0  0  0  0  0
   -1.8601   26.1791    4.2958 H   0  0  0  0  0  0  0  0  0  0  0  0
   -3.5754   26.8956    2.5992 H   0  0  0  0  0  0  0  0  0  0  0  0
   -3.3496   29.0315    1.7818 H   0  0  0  0  0  0  0  0  0  0  0  0
   -0.2984   31.2350    3.1785 H   0  0  0  0  0  0  0  0  0  0  0  0
    1.0627   20.2782    8.6672 H   0  0  0  0  0  0  0  0  0  0  0  0
  1  2  1  0
  2  3  1  0
  3  4  1  0
  4  5  1  0
  5  6  1  0
  6  7  1  0
  7  8  1  0
  8  9  1  0
  9 10  1  0
 10 11  1  0
 11 12  1  0
 12 13  1  0
 13 14  1  0
 14 15  1  0
 15 16  1  0
 16 17  1  0
 17 18  1  0
 18 19  1  0
 19 20  1  0
 20 21  1  0
  7 22  1  0
 22  3  1  0
 22  5  1  0
 16 13  1  0
 20 17  1  0
 20 18  1  0
  1 23  1  0
  1 24  1  0
  1 25  1  0
  2 26  1  0
  2 27  1  0
  3 28  1  0
  4 29  1  0
  4 30  1  0
  5 31  1  0
  6 32  1  0
  7 33  1  0
  8 34  1  0
  8 35  1  0
  9 36  1  0
  9 37  1  0
 10 38  1  0
 10 39  1  0
 11 40  1  0
 11 41  1  0
 12 42  1  0
 12 43  1  0
 13 44  1  0
 14 45  1  0
 14 46  1  0
 16 47  1  0
 18 48  1  0
 19 49  1  0
 19 50  1  0
 21 51  1  0
 22 52  1  0
M  END
