
     RDKit          2D

101108  0  0  0  0  0  0  0  0999 V2000
    2.9365   20.0000    6.5625 C   0  0  0  0  0  0  0  0  0  0  0  0
    3.2381   21.3901    7.0385 C   0  0  0  0  0  0  0  0  0  0  0  0
    3.5397   22.7802    7.5146 C   0  0  0  0  0  0  0  0  0  0  0  0
    3.8413   24.1703    7.9906 C   0  0  0  0  0  0  0  0  0  0  0  0
    2.5904   24.9529    7.7211 C   0  0  0  0  0  0  0  0  0  0  0  0
    3.2377   26.1824    8.2861 C   0  0  0  0  0  0  0  0  0  0  0  0
    4.4886   25.3998    8.5557 C   0  0  0  0  0  0  0  0  0  0  0  0
    5.2483   24.1073    8.5066 C   0  0  0  0  0  0  0  0  0  0  0  0
    5.7721   22.7383    8.3484 C   0  0  0  0  0  0  0  0  0  0  0  0
    5.4706   21.3482    7.8724 C   0  0  0  0  0  0  0  0  0  0  0  0
    6.4064   20.1770    7.9215 C   0  0  0  0  0  0  0  0  0  0  0  0
    5.3537   19.3097    7.2974 C   0  0  0  0  0  0  0  0  0  0  0  0
    4.4178   20.4809    7.2482 C   0  0  0  0  0  0  0  0  0  0  0  0
    3.0161   20.4677    6.7143 C   0  0  0  0  0  0  0  0  0  0  0  0
    1.8007   21.3136    6.4747 C   0  0  0  0  0  0  0  0  0  0  0  0
    1.2361   22.6955    6.6208 C   0  0  0  0  0  0  0  0  0  0  0  0
    0.0207   23.5414    6.3812 C   0  0  0  0  0  0  0  0  0  0  0  0
   -1.1946   24.3873    6.1415 C   0  0  0  0  0  0  0  0  0  0  0  0
   -2.4100   25.2332    5.9019 C   0  0  0  0  0  0  0  0  0  0  0  0
   -3.6253   26.0791    5.6623 As  0  0  0  0  0  3  0  0  0  0  0  0
   -3.6164   27.5299    6.0434 C   0  0  0  0  0  0  0  0  0  0  0  0
   -4.8496   25.4743    5.0415 C   0  0  0  0  0  0  0  0  0  0  0  0
   -5.9022   24.6069    4.4174 N   0  0  0  0  0  0  0  0  0  0  0  0
   -7.1176   25.4528    4.1777 C   0  0  0  0  0  0  0  0  0  0  0  0
   -8.4080   24.9899    3.5689 N   0  0  0  0  0  2  0  0  0  0  0  0
   -8.3403   26.3770    3.9557 N   0  0  0  0  0  2  0  0  0  0  0  0
   -8.6245   27.8250    4.2252 N   0  0  0  0  0  0  0  0  0  0  0  0
   -9.5603   28.9962    4.1760 C   0  0  0  0  0  0  0  0  0  0  0  0
   -8.5076   29.8635    4.8002 C   0  0  0  0  0  0  0  0  0  0  0  0
   -7.4549   30.7308    5.4243 C   0  0  0  0  0  0  0  0  0  0  0  0
   -6.4022   31.5982    6.0485 C   0  0  0  0  0  0  0  0  0  0  0  0
   -7.3290   32.7753    5.9757 O   0  0  0  0  0  0  0  0  0  0  0  0
   -5.3495   32.4655    6.6726 C   0  0  0  0  0  0  0  0  0  0  0  0
   -5.2966   32.6260    8.1630 N   0  0  0  0  0  0  0  0  0  0  0  0
   -7.5717   28.6924    4.8493 C   0  0  0  0  0  0  0  0  0  0  0  0
   -6.2350   28.1116    5.2040 C   0  0  0  0  0  0  0  0  0  0  0  0
   -6.8160   26.8429    4.6538 N   0  0  0  0  0  0  0  0  0  0  0  0
   -5.4143   26.8561    5.1876 C   0  0  0  0  0  0  0  0  0  0  0  0
   -4.1900   27.4610    5.8084 N   0  0  0  0  0  0  0  0  0  0  0  0
   -4.1811   28.9117    6.1895 C   0  0  0  0  0  0  0  0  0  0  0  0
   -2.9747   26.6151    6.0480 C   0  0  0  0  0  0  0  0  0  0  0  0
   -1.6817   25.9202    6.3564 F   0  0  0  0  0  0  0  0  0  0  0  0
   -2.1199   27.6900    6.6513 F   0  0  0  0  0  0  0  0  0  0  0  0
    1.5376   24.0856    7.0969 C   0  0  0  0  0  0  0  0  0  0  0  0
    0.9729   25.4675    7.2430 C   0  0  0  0  0  0  0  0  0  0  0  0
    2.6349   18.6099    6.0864 H   0  0  0  0  0  0  0  0  0  0  0  0
    1.4605   20.0322    6.8276 H   0  0  0  0  0  0  0  0  0  0  0  0
    4.2706   19.4665    6.1314 H   0  0  0  0  0  0  0  0  0  0  0  0
    4.5262   20.9297    6.4232 H   0  0  0  0  0  0  0  0  0  0  0  0
    1.8040   21.1778    7.4235 H   0  0  0  0  0  0  0  0  0  0  0  0
    2.0885   22.9859    7.8334 H   0  0  0  0  0  0  0  0  0  0  0  0
    4.9909   22.5746    7.1957 H   0  0  0  0  0  0  0  0  0  0  0  0
    1.1842   25.1679    7.2450 H   0  0  0  0  0  0  0  0  0  0  0  0
    3.8852   27.4118    8.8512 H   0  0  0  0  0  0  0  0  0  0  0  0
    1.9868   26.9650    8.0165 H   0  0  0  0  0  0  0  0  0  0  0  0
    5.4378   26.3847    9.1713 H   0  0  0  0  0  0  0  0  0  0  0  0
    6.5688   23.4804    8.8431 H   0  0  0  0  0  0  0  0  0  0  0  0
    6.9874   21.8925    8.5881 H   0  0  0  0  0  0  0  0  0  0  0  0
    6.9310   23.4564    8.9739 H   0  0  0  0  0  0  0  0  0  0  0  0
    4.8013   20.1327    7.3027 H   0  0  0  0  0  0  0  0  0  0  0  0
    7.3422   19.0058    7.9707 H   0  0  0  0  0  0  0  0  0  0  0  0
    7.4590   21.0443    8.5457 H   0  0  0  0  0  0  0  0  0  0  0  0
    4.4229   18.3061    6.6839 H   0  0  0  0  0  0  0  0  0  0  0  0
    6.2895   18.1384    7.3465 H   0  0  0  0  0  0  0  0  0  0  0  0
    4.0684   19.1069    6.7583 H   0  0  0  0  0  0  0  0  0  0  0  0
    2.0853   19.4640    6.1008 H   0  0  0  0  0  0  0  0  0  0  0  0
    3.4193   19.0396    6.4951 H   0  0  0  0  0  0  0  0  0  0  0  0
    0.4264   21.1228    5.9050 H   0  0  0  0  0  0  0  0  0  0  0  0
    1.1752   20.0707    5.9144 H   0  0  0  0  0  0  0  0  0  0  0  0
    0.0771   21.9774    5.9953 H   0  0  0  0  0  0  0  0  0  0  0  0
   -0.6759   22.3655    5.7632 H   0  0  0  0  0  0  0  0  0  0  0  0
    0.5639   24.8117    6.9654 H   0  0  0  0  0  0  0  0  0  0  0  0
   -1.9043   23.2021    5.5570 H   0  0  0  0  0  0  0  0  0  0  0  0
   -0.6385   25.6668    6.6925 H   0  0  0  0  0  0  0  0  0  0  0  0
   -3.1215   24.0467    5.3223 H   0  0  0  0  0  0  0  0  0  0  0  0
   -1.5556   26.3077    6.5065 H   0  0  0  0  0  0  0  0  0  0  0  0
   -3.1032   28.8344    6.5772 H   0  0  0  0  0  0  0  0  0  0  0  0
   -4.9808   28.0160    5.6536 H   0  0  0  0  0  0  0  0  0  0  0  0
   -2.2173   27.5686    6.5829 H   0  0  0  0  0  0  0  0  0  0  0  0
   -4.0289   24.2187    5.0252 H   0  0  0  0  0  0  0  0  0  0  0  0
   -5.7639   23.1496    4.0903 H   0  0  0  0  0  0  0  0  0  0  0  0
   -8.5641   23.5617    3.1380 H   0  0  0  0  0  0  0  0  0  0  0  0
  -10.4962   30.1675    4.1268 H   0  0  0  0  0  0  0  0  0  0  0  0
  -10.6130   28.1289    3.5518 H   0  0  0  0  0  0  0  0  0  0  0  0
   -9.4434   31.0348    4.7510 H   0  0  0  0  0  0  0  0  0  0  0  0
   -8.5121   31.7876    5.2995 H   0  0  0  0  0  0  0  0  0  0  0  0
   -8.2555   31.9990    5.4517 H   0  0  0  0  0  0  0  0  0  0  0  0
   -5.4754   30.4210    6.1213 H   0  0  0  0  0  0  0  0  0  0  0  0
   -6.7211   34.0344    6.5193 H   0  0  0  0  0  0  0  0  0  0  0  0
   -4.3496   33.1724    5.8062 H   0  0  0  0  0  0  0  0  0  0  0  0
   -4.2440   33.4934    8.7872 H   0  0  0  0  0  0  0  0  0  0  0  0
   -6.9463   29.9353    5.4096 H   0  0  0  0  0  0  0  0  0  0  0  0
   -6.2014   29.5598    5.5937 H   0  0  0  0  0  0  0  0  0  0  0  0
   -4.0005   30.3347    6.6283 H   0  0  0  0  0  0  0  0  0  0  0  0
   -2.7820   28.9505    6.7290 H   0  0  0  0  0  0  0  0  0  0  0  0
   -5.5896   29.0509    5.6927 H   0  0  0  0  0  0  0  0  0  0  0  0
   -3.3714   25.2589    5.5448 H   0  0  0  0  0  0  0  0  0  0  0  0
    0.1441   24.4254    6.6580 H   0  0  0  0  0  0  0  0  0  0  0  0
    0.4081   26.8495    7.3891 H   0  0  0  0  0  0  0  0  0  0  0  0
   -0.3769   25.1763    6.6572 H   0  0  0  0  0  0  0  0  0  0  0  0
    2.2635   25.9307    7.8511 H   0  0  0  0  0  0  0  0  0  0  0  0
  1  2  1  0
  2  3  1  0
  3  4  1  0
  4  5  1  0
  5  6  1  0
  6  7  1  0
  7  8  1  0
  8  9  1  0
  9 10  1  0
 10 11  1  0
 11 12  1  0
 12 13  1  0
 13 14  1  0
 14 15  1  0
 15 16  1  0
 16 17  1  0
 17 18  1  0
 18 19  1  0
 19 20  1  0
 20 21  1  0
 20 22  1  0
 22 23  1  0
 23 24  1  0
 24 25  1  0
 24 26  1  0
 26 27  1  0
 27 28  1  0
 28 29  1  0
 29 30  1  0
 30 31  1  0
 31 32  1  0
 31 33  1  0
 33 34  2  3
 29 35  1  0
 35 36  1  0
 36 37  1  0
 37 38  1  0
 38 39  1  0
 39 40  1  0
 39 41  1  0
 41 42  1  0
 41 43  1  0
 16 44  1  0
 44 45  1  0
  7  4  1  0
 13 10  1  0
 38 22  1  0
  8  4  1  0
 37 24  1  0
 44  5  1  0
 35 27  1  0
 38 36  1  0
  1 46  1  0
  1 47  1  0
  1 48  1  0
  2 49  1  0
  2 50  1  0
  3 51  1  0
  3 52  1  0
  5 53  1  0
  6 54  1  0
  6 55  1  0
  7 56  1  0
  8 57  1  0
  9 58  1  0
  9 59  1  0
 10 60  1  0
 11 61  1  0
 11 62  1  0
 12 63  1  0
 12 64  1  0
 13 65  1  0
 14 66  1  0
 14 67  1  0
 15 68  1  0
 15 69  1  0
 16 70  1  0
 17 71  1  0
 17 72  1  0
 18 73  1  0
 18 74  1  0
 19 75  1  0
 19 76  1  0
 21 77  1  0
 21 78  1  0
 21 79  1  0
 22 80  1  0
 23 81  1  0
 25 82  1  0
 28 83  1  0
 28 84  1  0
 29 85  1  0
 30 86  1  0
 30 87  1  0
 31 88  1  0
 32 89  1  0
 33 90  1  0
 34 91  1  0
 35 92  1  0
 36 93  1  0
 40 94  1  0
 40 95  1  0
 40 96  1  0
 41 97  1  0
 44 98  1  0
 45 99  1  0
 45100  1  0
 45101  1  0
M  RAD  2  25   2  26   2
M  END
