
     RDKit          2D

 61 68  0  0  0  0  0  0  0  0999 V2000
   19.0307  -22.7268   -8.4330 N   0  0  0  0  0  0  0  0  0  0  0  0
   19.7328  -22.4263   -9.7241 C   0  0  0  0  0  0  0  0  0  0  0  0
   18.3487  -22.1444  -10.2290 C   0  0  0  0  0  0  0  0  0  0  0  0
   18.4541  -21.7418  -11.6701 C   0  0  0  0  0  0  0  0  0  0  0  0
   19.9033  -21.7749  -12.0558 C   0  0  0  0  0  0  0  0  0  0  0  0
   21.3957  -21.8975  -12.1441 C   0  0  0  0  0  0  0  0  0  0  0  0
   22.8880  -22.0201  -12.2324 C   0  0  0  0  0  0  0  0  0  0  0  0
   23.0971  -21.6301  -13.6657 C   0  0  0  0  0  0  0  0  0  0  0  0
   23.3061  -21.2400  -15.0989 C   0  0  0  0  0  0  0  0  0  0  0  0
   23.5152  -20.8500  -16.5321 C   0  0  0  0  0  0  0  0  0  0  0  0
   24.9940  -21.0395  -16.3681 C   0  0  0  0  0  0  0  0  0  0  0  0
   25.2031  -20.6494  -17.8013 C   0  0  0  0  0  0  0  0  0  0  0  0
   23.7242  -20.4599  -17.9654 C   0  0  0  0  0  0  0  0  0  0  0  0
   22.1859  -22.3206  -10.9414 C   0  0  0  0  0  0  0  0  0  0  0  0
   20.6936  -22.1980  -10.8531 C   0  0  0  0  0  0  0  0  0  0  0  0
   16.8564  -22.0218  -10.1407 O   0  0  0  0  0  0  0  0  0  0  0  0
   17.6466  -22.4449   -8.9380 C   0  0  0  0  0  0  0  0  0  0  0  0
   16.5361  -22.6194   -7.9449 C   0  0  0  0  0  0  0  0  0  0  0  0
   15.4256  -22.7940   -6.9517 C   0  0  0  0  0  0  0  0  0  0  0  0
   14.3150  -22.9686   -5.9586 C   0  0  0  0  0  0  0  0  0  0  0  0
   13.6129  -23.2690   -4.6676 C   0  0  0  0  0  0  0  0  0  0  0  0
   15.1053  -23.3916   -4.7559 C   0  0  0  0  0  0  0  0  0  0  0  0
   15.4145  -23.8242   -3.3533 C   0  0  0  0  0  0  0  0  0  0  0  0
   15.7236  -24.2569   -1.9507 C   0  0  0  0  0  0  0  0  0  0  0  0
   16.5136  -24.6799   -0.7478 C   0  0  0  0  0  0  0  0  0  0  0  0
   17.2159  -24.3795   -2.0389 C   0  0  0  0  0  0  0  0  0  0  0  0
   19.8209  -23.1497   -7.2303 H   0  0  0  0  0  0  0  0  0  0  0  0
   17.5949  -22.7089   -7.9989 H   0  0  0  0  0  0  0  0  0  0  0  0
   20.9700  -22.7710   -8.9492 H   0  0  0  0  0  0  0  0  0  0  0  0
   18.2475  -21.3136  -13.0927 H   0  0  0  0  0  0  0  0  0  0  0  0
   16.9618  -21.6192  -11.5818 H   0  0  0  0  0  0  0  0  0  0  0  0
   19.6967  -21.3467  -13.4785 H   0  0  0  0  0  0  0  0  0  0  0  0
   24.3078  -22.2782  -11.8230 H   0  0  0  0  0  0  0  0  0  0  0  0
   24.5756  -21.8236  -13.5027 H   0  0  0  0  0  0  0  0  0  0  0  0
   21.6185  -21.4366  -13.8286 H   0  0  0  0  0  0  0  0  0  0  0  0
   21.8277  -21.0456  -15.2617 H   0  0  0  0  0  0  0  0  0  0  0  0
   24.1576  -21.3820  -14.9003 H   0  0  0  0  0  0  0  0  0  0  0  0
   22.0363  -20.6604  -16.6962 H   0  0  0  0  0  0  0  0  0  0  0  0
   26.4730  -21.2290  -16.2039 H   0  0  0  0  0  0  0  0  0  0  0  0
   24.9780  -21.2817  -15.5162 H   0  0  0  0  0  0  0  0  0  0  0  0
   25.4122  -20.2594  -19.2344 H   0  0  0  0  0  0  0  0  0  0  0  0
   26.6820  -20.8390  -17.6371 H   0  0  0  0  0  0  0  0  0  0  0  0
   22.2453  -20.2703  -18.1295 H   0  0  0  0  0  0  0  0  0  0  0  0
   23.9333  -20.0698  -19.3986 H   0  0  0  0  0  0  0  0  0  0  0  0
   22.9761  -22.7436   -9.7387 H   0  0  0  0  0  0  0  0  0  0  0  0
   18.1346  -22.6627   -8.3465 H   0  0  0  0  0  0  0  0  0  0  0  0
   17.5341  -23.0200   -6.8992 H   0  0  0  0  0  0  0  0  0  0  0  0
   15.5380  -22.2188   -8.9905 H   0  0  0  0  0  0  0  0  0  0  0  0
   14.4273  -22.3954   -7.9980 H   0  0  0  0  0  0  0  0  0  0  0  0
   16.5517  -23.1684   -6.0344 H   0  0  0  0  0  0  0  0  0  0  0  0
   13.1391  -22.6061   -6.8165 H   0  0  0  0  0  0  0  0  0  0  0  0
   12.1931  -23.0109   -5.0770 H   0  0  0  0  0  0  0  0  0  0  0  0
   13.0523  -23.6007   -3.3164 H   0  0  0  0  0  0  0  0  0  0  0  0
   16.5480  -23.4171   -5.1658 H   0  0  0  0  0  0  0  0  0  0  0  0
   13.9537  -23.7748   -3.0162 H   0  0  0  0  0  0  0  0  0  0  0  0
   16.8753  -23.8737   -3.6904 H   0  0  0  0  0  0  0  0  0  0  0  0
   14.3385  -24.2845   -1.3754 H   0  0  0  0  0  0  0  0  0  0  0  0
   15.4030  -24.8545    0.2451 H   0  0  0  0  0  0  0  0  0  0  0  0
   17.6895  -25.0423    0.1101 H   0  0  0  0  0  0  0  0  0  0  0  0
   18.6357  -24.6376   -1.6292 H   0  0  0  0  0  0  0  0  0  0  0  0
   17.7767  -24.0478   -3.3900 H   0  0  0  0  0  0  0  0  0  0  0  0
  1  2  1  0
  2  3  1  0
  3  4  1  0
  4  5  1  0
  5  6  1  0
  6  7  1  0
  7  8  1  0
  8  9  1  0
  9 10  1  0
 10 11  1  0
 11 12  1  0
 12 13  1  0
  7 14  1  0
 14 15  1  0
  3 16  1  0
 16 17  1  0
 17 18  1  0
 18 19  1  0
 19 20  1  0
 20 21  1  0
 21 22  1  0
 22 23  1  0
 23 24  1  0
 24 25  1  0
 25 26  1  0
 15  2  1  0
 22 20  1  0
 26 24  1  0
 17  3  1  0
 15  5  1  0
 14  6  1  0
 15  6  1  0
 13 10  1  0
  1 27  1  0
  1 28  1  0
  2 29  1  0
  4 30  1  0
  4 31  1  0
  5 32  1  0
  7 33  1  0
  8 34  1  0
  8 35  1  0
  9 36  1  0
  9 37  1  0
 10 38  1  0
 11 39  1  0
 11 40  1  0
 12 41  1  0
 12 42  1  0
 13 43  1  0
 13 44  1  0
 14 45  1  0
 17 46  1  0
 18 47  1  0
 18 48  1  0
 19 49  1  0
 19 50  1  0
 20 51  1  0
 21 52  1  0
 21 53  1  0
 22 54  1  0
 23 55  1  0
 23 56  1  0
 24 57  1  0
 25 58  1  0
 25 59  1  0
 26 60  1  0
 26 61  1  0
M  END
