
     RDKit          2D

 33 36  0  0  0  0  0  0  0  0999 V2000
   -9.7282   29.5508    9.4271 C   0  0  0  0  0  0  0  0  0  0  0  0
   -8.8860   30.5085   10.2169 C   0  0  0  0  0  0  0  0  0  0  0  0
   -7.5328   30.1921    9.6522 C   0  0  0  0  0  0  0  0  0  0  0  0
   -7.3901   29.1435    8.5891 C   0  0  0  0  0  0  0  0  0  0  0  0
   -6.0369   28.8272    8.0245 C   0  0  0  0  0  0  0  0  0  0  0  0
   -5.6397   29.8922    9.0033 C   0  0  0  0  0  0  0  0  0  0  0  0
   -4.2067   29.7406    8.5867 C   0  0  0  0  0  0  0  0  0  0  0  0
   -4.6039   28.6756    7.6079 C   0  0  0  0  0  0  0  0  0  0  0  0
   -4.5389   27.6159    6.5483 N   0  0  0  0  0  0  0  0  0  0  0  0
   -5.9317   27.1125    6.3101 C   0  0  0  0  0  0  0  0  0  0  0  0
   -7.4023   26.8178    6.2926 C   0  0  0  0  0  0  0  0  0  0  0  0
   -6.8575   27.8611    7.2224 C   0  0  0  0  0  0  0  0  0  0  0  0
   -9.9467   31.1574   11.0558 C   0  0  0  0  0  0  0  0  0  0  0  0
   -8.5139   31.5759   11.2027 C   0  0  0  0  0  0  0  0  0  0  0  0
   -8.6565   32.6245   12.2658 F   0  0  0  0  0  0  0  0  0  0  0  0
  -10.5702   28.5932    8.6373 H   0  0  0  0  0  0  0  0  0  0  0  0
   -8.9161   29.1111    8.8413 H   0  0  0  0  0  0  0  0  0  0  0  0
  -10.9153   29.8836    9.9769 H   0  0  0  0  0  0  0  0  0  0  0  0
   -6.3223   30.9244   10.1506 H   0  0  0  0  0  0  0  0  0  0  0  0
   -8.1049   28.7111    8.2949 H   0  0  0  0  0  0  0  0  0  0  0  0
   -5.2425   30.9572    9.9820 H   0  0  0  0  0  0  0  0  0  0  0  0
   -6.6881   30.2201    9.5226 H   0  0  0  0  0  0  0  0  0  0  0  0
   -2.7737   29.5891    8.1700 H   0  0  0  0  0  0  0  0  0  0  0  0
   -3.8095   30.8057    9.5654 H   0  0  0  0  0  0  0  0  0  0  0  0
   -3.1265   28.6925    7.3495 H   0  0  0  0  0  0  0  0  0  0  0  0
   -3.2988   27.1426    5.8496 H   0  0  0  0  0  0  0  0  0  0  0  0
   -5.5592   26.1144    5.2541 H   0  0  0  0  0  0  0  0  0  0  0  0
   -7.4411   25.7478    5.2421 H   0  0  0  0  0  0  0  0  0  0  0  0
   -8.8596   26.8948    6.6400 H   0  0  0  0  0  0  0  0  0  0  0  0
   -7.9858   28.0586    7.6277 H   0  0  0  0  0  0  0  0  0  0  0  0
  -11.1228   30.5896   10.7136 H   0  0  0  0  0  0  0  0  0  0  0  0
  -10.5870   32.0605   12.0678 H   0  0  0  0  0  0  0  0  0  0  0  0
   -7.0314   31.6304   10.9805 H   0  0  0  0  0  0  0  0  0  0  0  0
  2  1  1  1
  2  3  1  0
  3  4  2  3
  5  4  1  0
  5  6  1  6
  6  7  1  0
  7  8  1  0
  8  9  1  0
  9 10  1  0
 10 11  1  0
 11 12  1  0
  2 13  1  0
 13 14  1  0
 14 15  1  0
 14  2  1  0
  8  5  1  0
 12 10  1  0
 12  5  1  0
  1 16  1  0
  1 17  1  0
  1 18  1  0
  3 19  1  0
  4 20  1  0
  6 21  1  0
  6 22  1  0
  7 23  1  0
  7 24  1  0
  8 25  1  1
  9 26  1  0
 10 27  1  6
 11 28  1  0
 11 29  1  0
 12 30  1  6
 13 31  1  0
 13 32  1  0
 14 33  1  1
M  END
