
     RDKit          2D

 28 29  0  0  0  0  0  0  0  0999 V2000
   13.1222  -15.7857    0.1915 C   0  0  0  0  0  0  0  0  0  0  0  0
   13.0561  -17.0172   -0.6623 C   0  0  0  0  0  0  0  0  0  0  0  0
   13.9397  -17.4445    0.4721 Al  0  0  0  0  0  3  0  0  0  0  0  0
   14.5951  -18.7748    0.6969 C   0  0  0  0  0  0  0  0  0  0  0  0
   14.5291  -20.0064   -0.1569 C   0  0  0  0  0  0  0  0  0  0  0  0
   14.5965  -21.3313   -0.8569 C   0  0  0  0  0  0  0  0  0  0  0  0
   15.4857  -22.0812    0.0902 O   0  0  0  0  0  0  0  0  0  0  0  0
   13.7911  -20.2117   -1.4466 C   0  0  0  0  0  0  0  0  0  0  0  0
   12.9370  -19.2362   -2.2009 C   0  0  0  0  0  0  0  0  0  0  0  0
   12.3297  -19.7504   -3.4724 O   0  0  0  0  0  0  0  0  0  0  0  0
   12.6099  -17.8145   -1.8519 C   0  0  0  0  0  0  0  0  0  0  0  0
   11.9544  -16.4843   -2.0768 C   0  0  0  0  0  0  0  0  0  0  0  0
   11.2989  -15.1540   -2.3017 O   0  0  0  0  0  0  0  0  0  0  0  0
   13.1884  -14.5542    1.0455 H   0  0  0  0  0  0  0  0  0  0  0  0
   13.6507  -16.1182    0.8198 H   0  0  0  0  0  0  0  0  0  0  0  0
   12.2287  -15.0671   -0.7755 H   0  0  0  0  0  0  0  0  0  0  0  0
   12.2404  -15.9222   -1.2833 H   0  0  0  0  0  0  0  0  0  0  0  0
   14.1336  -16.9589    1.0737 H   0  0  0  0  0  0  0  0  0  0  0  0
   15.4493  -19.7503    1.4513 H   0  0  0  0  0  0  0  0  0  0  0  0
   15.0414  -17.9775    1.8866 H   0  0  0  0  0  0  0  0  0  0  0  0
   15.4227  -20.6318    0.8729 H   0  0  0  0  0  0  0  0  0  0  0  0
   14.3551  -22.3958   -1.8858 H   0  0  0  0  0  0  0  0  0  0  0  0
   15.8539  -23.5068   -0.1965 H   0  0  0  0  0  0  0  0  0  0  0  0
   13.4653  -21.1764   -2.5481 H   0  0  0  0  0  0  0  0  0  0  0  0
   11.8719  -18.0198   -3.1416 H   0  0  0  0  0  0  0  0  0  0  0  0
   11.3488  -16.9978   -3.3494 H   0  0  0  0  0  0  0  0  0  0  0  0
   12.4757  -15.8123   -0.8411 H   0  0  0  0  0  0  0  0  0  0  0  0
   10.4456  -14.9339   -3.5156 H   0  0  0  0  0  0  0  0  0  0  0  0
  1  2  1  0
  2  3  1  0
  3  4  1  0
  4  5  1  0
  5  6  1  0
  6  7  1  0
  6  8  1  0
  8  9  1  0
  9 10  2  0
  9 11  1  0
 11 12  1  0
 12 13  1  0
 11  2  1  0
  8  5  1  0
  1 14  1  0
  1 15  1  0
  1 16  1  0
  2 17  1  0
  3 18  1  0
  4 19  1  0
  4 20  1  0
  5 21  1  0
  6 22  1  0
  7 23  1  0
  8 24  1  0
 11 25  1  0
 12 26  1  0
 12 27  1  0
 13 28  1  0
M  END
