
     RDKit          2D

 25 26  0  0  0  0  0  0  0  0999 V2000
   21.6599  -21.0196  -11.6186 O   0  0  0  0  0  0  0  0  0  0  0  0
   20.8391  -22.0921  -10.9659 O   0  0  0  0  0  0  0  0  0  0  0  0
   19.5874  -21.7307  -10.2226 C   0  0  0  0  0  0  0  0  0  0  0  0
   18.3357  -21.3692   -9.4792 C   0  0  0  0  0  0  0  0  0  0  0  0
   17.0839  -21.0078   -8.7359 N   0  0  0  0  0  0  0  0  0  0  0  0
   16.2631  -22.0803   -8.0832 C   0  0  0  0  0  0  0  0  0  0  0  0
   15.1639  -21.2458   -7.4957 O   0  0  0  0  0  0  0  0  0  0  0  0
   15.1596  -22.7337   -7.3052 C   0  0  0  0  0  0  0  0  0  0  0  0
   15.5905  -24.1675   -7.3958 C   0  0  0  0  0  0  0  0  0  0  0  0
   15.5862  -25.6554   -7.2053 C   0  0  0  0  0  0  0  0  0  0  0  0
   14.4869  -24.8208   -6.6178 C   0  0  0  0  0  0  0  0  0  0  0  0
   13.6661  -25.8934   -5.9651 O   0  0  0  0  0  0  0  0  0  0  0  0
   22.9117  -21.3810  -12.3619 H   0  0  0  0  0  0  0  0  0  0  0  0
   19.4175  -23.1634   -9.8122 H   0  0  0  0  0  0  0  0  0  0  0  0
   19.7573  -20.2980  -10.6330 H   0  0  0  0  0  0  0  0  0  0  0  0
   17.9843  -22.8229   -9.3640 H   0  0  0  0  0  0  0  0  0  0  0  0
   18.6870  -19.9155   -9.5944 H   0  0  0  0  0  0  0  0  0  0  0  0
   16.6530  -19.5739   -8.6453 H   0  0  0  0  0  0  0  0  0  0  0  0
   17.1904  -23.1716   -8.5299 H   0  0  0  0  0  0  0  0  0  0  0  0
   13.8892  -22.7070   -6.5079 H   0  0  0  0  0  0  0  0  0  0  0  0
   16.8608  -24.1942   -8.1931 H   0  0  0  0  0  0  0  0  0  0  0  0
   16.8379  -26.0168   -7.9486 H   0  0  0  0  0  0  0  0  0  0  0  0
   15.1472  -27.0178   -6.7567 H   0  0  0  0  0  0  0  0  0  0  0  0
   13.5597  -23.7297   -6.1711 H   0  0  0  0  0  0  0  0  0  0  0  0
   12.4144  -25.5319   -5.2217 H   0  0  0  0  0  0  0  0  0  0  0  0
  1  2  1  0
  2  3  1  0
  3  4  1  0
  4  5  1  0
  5  6  1  0
  6  7  1  0
  7  8  1  0
  8  9  1  0
  9 10  1  0
 10 11  1  0
 11 12  1  0
  8  6  1  0
 11  9  1  0
  1 13  1  0
  3 14  1  0
  3 15  1  0
  4 16  1  0
  4 17  1  0
  5 18  1  0
  6 19  1  0
  8 20  1  0
  9 21  1  0
 10 22  1  0
 10 23  1  0
 11 24  1  0
 12 25  1  0
M  END
