
     RDKit          2D

 48 52  0  0  0  0  0  0  0  0999 V2000
   24.0770  -20.3402  -17.4957 N   0  0  0  0  0  0  0  0  0  0  0  0
   22.9149  -20.6111  -16.5867 C   0  0  0  0  0  0  0  0  0  0  0  0
   21.7529  -20.8820  -15.6777 C   0  0  0  0  0  0  0  0  0  0  0  0
   20.5909  -21.1528  -14.7686 C   0  0  0  0  0  0  0  0  0  0  0  0
   19.4289  -21.4237  -13.8597 C   0  0  0  0  0  0  0  0  0  0  0  0
   18.2956  -21.2517  -14.8272 C   0  0  0  0  0  0  0  0  0  0  0  0
   18.0134  -21.6022  -13.3963 C   0  0  0  0  0  0  0  0  0  0  0  0
   18.2516  -21.9303  -11.9521 C   0  0  0  0  0  0  0  0  0  0  0  0
   18.4896  -22.2584  -10.5079 C   0  0  0  0  0  0  0  0  0  0  0  0
   17.0890  -21.8330  -10.1804 C   0  0  0  0  0  0  0  0  0  0  0  0
   17.3271  -22.1611   -8.7362 C   0  0  0  0  0  0  0  0  0  0  0  0
   18.7277  -22.5865   -9.0637 C   0  0  0  0  0  0  0  0  0  0  0  0
   19.3870  -23.0301   -7.7915 C   0  0  0  0  0  0  0  0  0  0  0  0
   20.4028  -23.5456   -6.8156 C   0  0  0  0  0  0  0  0  0  0  0  0
   19.4097  -23.3943   -5.7018 C   0  0  0  0  0  0  0  0  0  0  0  0
   18.0416  -23.0055   -5.2251 C   0  0  0  0  0  0  0  0  0  0  0  0
   18.3938  -22.8787   -6.6776 C   0  0  0  0  0  0  0  0  0  0  0  0
   17.1207  -22.3417   -7.2615 C   0  0  0  0  0  0  0  0  0  0  0  0
   16.6266  -22.4131   -5.8470 C   0  0  0  0  0  0  0  0  0  0  0  0
   16.9534  -22.6431   -5.1572 O   0  0  0  0  0  0  0  0  0  0  0  0
   15.2259  -21.9877   -5.5194 O   0  0  0  0  0  0  0  0  0  0  0  0
   23.8389  -20.0118  -18.9398 H   0  0  0  0  0  0  0  0  0  0  0  0
   25.4772  -20.3977  -16.9606 H   0  0  0  0  0  0  0  0  0  0  0  0
   21.9981  -19.9220  -17.5534 H   0  0  0  0  0  0  0  0  0  0  0  0
   23.8318  -21.3001  -15.6199 H   0  0  0  0  0  0  0  0  0  0  0  0
   20.8155  -20.7737  -16.8437 H   0  0  0  0  0  0  0  0  0  0  0  0
   22.6903  -20.9903  -14.5116 H   0  0  0  0  0  0  0  0  0  0  0  0
   19.8734  -20.9232  -15.8889 H   0  0  0  0  0  0  0  0  0  0  0  0
   21.5368  -21.3767  -13.6262 H   0  0  0  0  0  0  0  0  0  0  0  0
   20.2242  -21.6364  -12.7897 H   0  0  0  0  0  0  0  0  0  0  0  0
   16.8955  -21.1945  -15.3624 H   0  0  0  0  0  0  0  0  0  0  0  0
   18.8409  -20.9436  -16.0231 H   0  0  0  0  0  0  0  0  0  0  0  0
   16.5153  -21.6667  -13.4345 H   0  0  0  0  0  0  0  0  0  0  0  0
   17.3673  -21.9768  -11.9290 H   0  0  0  0  0  0  0  0  0  0  0  0
   19.5992  -21.8595  -11.9873 H   0  0  0  0  0  0  0  0  0  0  0  0
   19.8902  -22.6838  -10.8354 H   0  0  0  0  0  0  0  0  0  0  0  0
   15.6884  -21.4075   -9.8528 H   0  0  0  0  0  0  0  0  0  0  0  0
   16.8487  -21.6100  -11.0032 H   0  0  0  0  0  0  0  0  0  0  0  0
   15.9065  -21.6896   -8.6386 H   0  0  0  0  0  0  0  0  0  0  0  0
   20.0738  -22.9554   -9.6132 H   0  0  0  0  0  0  0  0  0  0  0  0
   20.5268  -23.2602   -8.7389 H   0  0  0  0  0  0  0  0  0  0  0  0
   21.4187  -24.0611   -5.8398 H   0  0  0  0  0  0  0  0  0  0  0  0
   21.3960  -23.6969   -7.9295 H   0  0  0  0  0  0  0  0  0  0  0  0
   20.1339  -23.8530   -4.4709 H   0  0  0  0  0  0  0  0  0  0  0  0
   18.1815  -23.3031   -3.7615 H   0  0  0  0  0  0  0  0  0  0  0  0
   17.2973  -22.7794   -5.0509 H   0  0  0  0  0  0  0  0  0  0  0  0
   15.7444  -21.8196   -7.5496 H   0  0  0  0  0  0  0  0  0  0  0  0
   14.7318  -22.0591   -4.1050 H   0  0  0  0  0  0  0  0  0  0  0  0
  1  2  1  0
  2  3  1  0
  3  4  1  0
  4  5  1  0
  5  6  1  0
  6  7  1  0
  7  8  1  0
  8  9  1  0
  9 10  1  0
 10 11  1  0
 11 12  1  0
 12 13  1  0
 13 14  1  0
 14 15  1  0
 15 16  1  0
 16 17  1  0
 17 18  1  0
 18 19  1  0
 19 20  2  0
 19 21  1  0
  7  5  1  0
 12  9  1  0
 17 13  1  0
 18 11  1  0
 17 15  1  0
  1 22  1  0
  1 23  1  0
  2 24  1  0
  2 25  1  0
  3 26  1  0
  3 27  1  0
  4 28  1  0
  4 29  1  0
  5 30  1  0
  6 31  1  0
  6 32  1  0
  7 33  1  0
  8 34  1  0
  8 35  1  0
  9 36  1  0
 10 37  1  0
 10 38  1  0
 11 39  1  0
 12 40  1  0
 13 41  1  0
 14 42  1  0
 14 43  1  0
 15 44  1  0
 16 45  1  0
 16 46  1  0
 18 47  1  0
 21 48  1  0
M  END
