
     RDKit          2D

 33 38  0  0  0  0  0  0  0  0999 V2000
   16.5190  -25.8724  -11.9293 C   0  0  0  0  0  0  0  0  0  0  0  0
   16.3407  -24.5545  -11.2356 C   0  0  0  0  0  0  0  0  0  0  0  0
   16.1622  -23.2366  -10.5417 C   0  0  0  0  0  0  0  0  0  0  0  0
   15.9837  -21.9188   -9.8480 C   0  0  0  0  0  0  0  0  0  0  0  0
   15.8053  -20.6008   -9.1542 C   0  0  0  0  0  0  0  0  0  0  0  0
   15.7197  -20.5467   -7.6576 C   0  0  0  0  0  0  0  0  0  0  0  0
   15.5413  -19.2288   -6.9638 C   0  0  0  0  0  0  0  0  0  0  0  0
   15.5144  -19.6876   -5.5360 C   0  0  0  0  0  0  0  0  0  0  0  0
   15.4515  -19.8414   -4.0452 C   0  0  0  0  0  0  0  0  0  0  0  0
   15.3552  -19.6834   -2.5567 C   0  0  0  0  0  0  0  0  0  0  0  0
   15.1769  -18.3200   -1.9571 C   0  0  0  0  0  0  0  0  0  0  0  0
   15.2155  -16.7378   -5.8685 C   0  0  0  0  0  0  0  0  0  0  0  0
   15.2259  -17.4817   -4.5660 C   0  0  0  0  0  0  0  0  0  0  0  0
   15.3750  -18.2292   -5.8578 C   0  0  0  0  0  0  0  0  0  0  0  0
   15.2732  -18.4780   -3.4457 C   0  0  0  0  0  0  0  0  0  0  0  0
   16.6975  -27.1902  -12.6231 H   0  0  0  0  0  0  0  0  0  0  0  0
   15.0298  -26.0333  -12.0067 H   0  0  0  0  0  0  0  0  0  0  0  0
   18.0084  -25.7115  -11.8520 H   0  0  0  0  0  0  0  0  0  0  0  0
   14.8513  -24.7139  -11.3159 H   0  0  0  0  0  0  0  0  0  0  0  0
   17.8300  -24.3952  -11.1551 H   0  0  0  0  0  0  0  0  0  0  0  0
   17.6515  -23.0763  -10.4632 H   0  0  0  0  0  0  0  0  0  0  0  0
   14.6728  -23.3969  -10.6203 H   0  0  0  0  0  0  0  0  0  0  0  0
   17.4731  -21.7588   -9.7687 H   0  0  0  0  0  0  0  0  0  0  0  0
   14.4944  -22.0786   -9.9272 H   0  0  0  0  0  0  0  0  0  0  0  0
   15.7124  -19.3372   -9.9569 H   0  0  0  0  0  0  0  0  0  0  0  0
   15.8126  -21.8104   -6.8549 H   0  0  0  0  0  0  0  0  0  0  0  0
   15.5062  -18.3122   -8.1507 H   0  0  0  0  0  0  0  0  0  0  0  0
   15.6871  -21.1469   -5.8370 H   0  0  0  0  0  0  0  0  0  0  0  0
   15.6110  -21.3328   -4.0346 H   0  0  0  0  0  0  0  0  0  0  0  0
   15.4371  -20.8887   -1.6676 H   0  0  0  0  0  0  0  0  0  0  0  0
   15.0183  -17.4416   -0.7516 H   0  0  0  0  0  0  0  0  0  0  0  0
   15.1174  -15.4472   -6.6266 H   0  0  0  0  0  0  0  0  0  0  0  0
   15.0498  -16.2738   -3.6942 H   0  0  0  0  0  0  0  0  0  0  0  0
  1  2  1  0
  2  3  1  0
  3  4  1  0
  4  5  1  0
  5  6  2  3
  6  7  1  0
  7  8  1  0
  8  9  1  0
  9 10  1  0
 10 11  1  0
 11 12  1  0
 12 13  1  0
 13 14  1  0
 13 15  1  0
 14  7  1  1
 14  8  1  0
 15  9  1  6
 15 10  1  0
 15 11  1  0
 14 12  1  0
  1 16  1  0
  1 17  1  0
  1 18  1  0
  2 19  1  0
  2 20  1  0
  3 21  1  0
  3 22  1  0
  4 23  1  0
  4 24  1  0
  5 25  1  0
  6 26  1  0
  7 27  1  1
  8 28  1  1
  9 29  1  1
 10 30  1  1
 11 31  1  1
 12 32  1  1
 13 33  1  1
M  END
