
     RDKit          2D

108116  0  0  0  0  0  0  0  0999 V2000
   19.4973  -22.4302  -11.6015 C   0  0  0  0  0  0  0  0  0  0  0  0
   20.6686  -23.3659  -11.6507 C   0  0  0  0  0  0  0  0  0  0  0  0
   21.8399  -24.3016  -11.6998 C   0  0  0  0  0  0  0  0  0  0  0  0
   23.0112  -25.2374  -11.7489 C   0  0  0  0  0  0  0  0  0  0  0  0
   24.1826  -26.1731  -11.7981 C   0  0  0  0  0  0  0  0  0  0  0  0
   25.3539  -27.1088  -11.8473 C   0  0  0  0  0  0  0  0  0  0  0  0
   24.8344  -25.3028  -12.8315 C   0  0  0  0  0  0  0  0  0  0  0  0
   21.1902  -25.1694  -10.6631 C   0  0  0  0  0  0  0  0  0  0  0  0
   20.5404  -26.0373   -9.6264 C   0  0  0  0  0  0  0  0  0  0  0  0
   20.3298  -27.1735   -8.6701 C   0  0  0  0  0  0  0  0  0  0  0  0
   19.0804  -27.2353   -7.8423 C   0  0  0  0  0  0  0  0  0  0  0  0
   19.7682  -28.4816   -7.3693 C   0  0  0  0  0  0  0  0  0  0  0  0
   20.4559  -29.7279   -6.8963 C   0  0  0  0  0  0  0  0  0  0  0  0
   18.0417  -26.1609   -7.9708 C   0  0  0  0  0  0  0  0  0  0  0  0
   17.3799  -24.2783   -8.9217 C   0  0  0  0  0  0  0  0  0  0  0  0
   18.4629  -23.8883   -9.8834 C   0  0  0  0  0  0  0  0  0  0  0  0
   17.9848  -22.6119  -10.5097 C   0  0  0  0  0  0  0  0  0  0  0  0
   17.5067  -21.3355  -11.1359 C   0  0  0  0  0  0  0  0  0  0  0  0
   17.0286  -20.0591  -11.7622 C   0  0  0  0  0  0  0  0  0  0  0  0
   16.5505  -18.7827  -12.3885 C   0  0  0  0  0  0  0  0  0  0  0  0
   15.8231  -17.5471  -12.8290 C   0  0  0  0  0  0  0  0  0  0  0  0
   16.6661  -16.8553  -13.8590 C   0  0  0  0  0  0  0  0  0  0  0  0
   17.9144  -17.6634  -14.0552 C   0  0  0  0  0  0  0  0  0  0  0  0
   17.8430  -18.8546  -13.1463 C   0  0  0  0  0  0  0  0  0  0  0  0
   19.1790  -19.1903  -13.7401 N   0  0  0  0  0  0  0  0  0  0  0  0
   17.2192  -22.2862   -9.2615 C   0  0  0  0  0  0  0  0  0  0  0  0
   16.4536  -21.9606   -8.0134 C   0  0  0  0  0  0  0  0  0  0  0  0
   16.1996  -23.2853   -7.3571 C   0  0  0  0  0  0  0  0  0  0  0  0
   15.4751  -22.5931   -6.2408 O   0  0  0  0  0  0  0  0  0  0  0  0
   15.7291  -21.2685   -6.8971 C   0  0  0  0  0  0  0  0  0  0  0  0
   16.3114  -20.4674   -8.0237 C   0  0  0  0  0  0  0  0  0  0  0  0
   16.8936  -19.6662   -9.1502 C   0  0  0  0  0  0  0  0  0  0  0  0
   16.1691  -18.9742   -8.0339 C   0  0  0  0  0  0  0  0  0  0  0  0
   15.4014  -18.7769   -6.7605 Cl  0  0  0  0  0  0  0  0  0  0  0  0
   16.2935  -17.5495   -8.4865 C   0  0  0  0  0  0  0  0  0  0  0  0
   16.4178  -16.1248   -8.9390 S   0  0  0  0  0  0  0  0  0  0  0  0
   15.8239  -15.0214   -8.1146 N   0  0  0  0  0  0  0  0  0  0  0  0
   18.7504  -22.9375  -11.7578 N   0  0  0  0  0  0  0  0  0  0  0  0
   19.1833  -21.8371  -12.6807 C   0  0  0  0  0  0  0  0  0  0  0  0
   19.6163  -20.7367  -13.6036 C   0  0  0  0  0  0  0  0  0  0  0  0
   20.3159  -21.5416  -14.6584 C   0  0  0  0  0  0  0  0  0  0  0  0
   20.9396  -20.8534  -15.8363 C   0  0  0  0  0  0  0  0  0  0  0  0
   20.2400  -20.0486  -14.7815 N   0  0  0  0  0  0  0  0  0  0  0  0
   19.5017  -24.9627   -9.7549 C   0  0  0  0  0  0  0  0  0  0  0  0
   18.2523  -25.0245   -8.9271 C   0  0  0  0  0  0  0  0  0  0  0  0
   18.3260  -21.4944  -11.5523 H   0  0  0  0  0  0  0  0  0  0  0  0
   20.5248  -21.9542  -12.5853 H   0  0  0  0  0  0  0  0  0  0  0  0
   18.8464  -23.2992  -10.5666 H   0  0  0  0  0  0  0  0  0  0  0  0
   20.1659  -24.3420  -10.6286 H   0  0  0  0  0  0  0  0  0  0  0  0
   21.4569  -22.6179  -12.6847 H   0  0  0  0  0  0  0  0  0  0  0  0
   22.4897  -23.4338  -12.7365 H   0  0  0  0  0  0  0  0  0  0  0  0
   23.6604  -24.3703  -12.7867 H   0  0  0  0  0  0  0  0  0  0  0  0
   23.3576  -24.1697  -12.7439 H   0  0  0  0  0  0  0  0  0  0  0  0
   23.5307  -27.0433  -10.7647 H   0  0  0  0  0  0  0  0  0  0  0  0
   26.5253  -28.0446  -11.8964 H   0  0  0  0  0  0  0  0  0  0  0  0
   24.7059  -27.9746  -10.8078 H   0  0  0  0  0  0  0  0  0  0  0  0
   26.1399  -26.3636  -12.8849 H   0  0  0  0  0  0  0  0  0  0  0  0
   25.4862  -24.4326  -13.8648 H   0  0  0  0  0  0  0  0  0  0  0  0
   23.9225  -24.1218  -12.6775 H   0  0  0  0  0  0  0  0  0  0  0  0
   25.9612  -26.1431  -13.3551 H   0  0  0  0  0  0  0  0  0  0  0  0
   22.3595  -26.1073  -10.7153 H   0  0  0  0  0  0  0  0  0  0  0  0
   19.9503  -24.3442  -10.4849 H   0  0  0  0  0  0  0  0  0  0  0  0
   21.8048  -26.8103   -9.8580 H   0  0  0  0  0  0  0  0  0  0  0  0
   21.6673  -27.5520   -9.2338 H   0  0  0  0  0  0  0  0  0  0  0  0
   20.7418  -28.4514   -8.0014 H   0  0  0  0  0  0  0  0  0  0  0  0
   18.0699  -27.7300   -6.8503 H   0  0  0  0  0  0  0  0  0  0  0  0
   18.6210  -28.7640   -6.4452 H   0  0  0  0  0  0  0  0  0  0  0  0
   20.9907  -28.3532   -8.2289 H   0  0  0  0  0  0  0  0  0  0  0  0
   21.1438  -30.9741   -6.4233 H   0  0  0  0  0  0  0  0  0  0  0  0
   19.3091  -30.0098   -5.9715 H   0  0  0  0  0  0  0  0  0  0  0  0
   21.6029  -29.4459   -7.8211 H   0  0  0  0  0  0  0  0  0  0  0  0
   16.7923  -26.2227   -7.1430 H   0  0  0  0  0  0  0  0  0  0  0  0
   16.3559  -23.1919   -9.0681 H   0  0  0  0  0  0  0  0  0  0  0  0
   16.2092  -24.5171   -8.0148 H   0  0  0  0  0  0  0  0  0  0  0  0
   18.1774  -20.8748  -12.3961 H   0  0  0  0  0  0  0  0  0  0  0  0
   16.4928  -21.1784  -10.0417 H   0  0  0  0  0  0  0  0  0  0  0  0
   18.2456  -20.0334  -12.6388 H   0  0  0  0  0  0  0  0  0  0  0  0
   15.7625  -19.9290  -10.9685 H   0  0  0  0  0  0  0  0  0  0  0  0
   15.3580  -18.9776  -11.4998 H   0  0  0  0  0  0  0  0  0  0  0  0
   14.7826  -18.0003  -11.8482 H   0  0  0  0  0  0  0  0  0  0  0  0
   14.8781  -16.4061  -13.0644 H   0  0  0  0  0  0  0  0  0  0  0  0
   15.5449  -15.8590  -13.8792 H   0  0  0  0  0  0  0  0  0  0  0  0
   17.2746  -15.9553  -14.8933 H   0  0  0  0  0  0  0  0  0  0  0  0
   18.2620  -16.5944  -15.0484 H   0  0  0  0  0  0  0  0  0  0  0  0
   19.2513  -18.1052  -14.5725 H   0  0  0  0  0  0  0  0  0  0  0  0
   18.0509  -20.1160  -12.3616 H   0  0  0  0  0  0  0  0  0  0  0  0
   19.9282  -18.4076  -14.7773 H   0  0  0  0  0  0  0  0  0  0  0  0
   20.1564  -20.3103  -13.5401 H   0  0  0  0  0  0  0  0  0  0  0  0
   17.1540  -20.8465   -9.6772 H   0  0  0  0  0  0  0  0  0  0  0  0
   17.0973  -23.6044   -8.5562 H   0  0  0  0  0  0  0  0  0  0  0  0
   15.9455  -24.6099   -6.7007 H   0  0  0  0  0  0  0  0  0  0  0  0
   16.8412  -24.2772   -8.2814 H   0  0  0  0  0  0  0  0  0  0  0  0
   15.0950  -20.2571   -5.9888 H   0  0  0  0  0  0  0  0  0  0  0  0
   17.4876  -20.7696   -9.9747 H   0  0  0  0  0  0  0  0  0  0  0  0
   17.1852  -18.3796   -9.8641 H   0  0  0  0  0  0  0  0  0  0  0  0
   15.5373  -17.0978   -7.2723 H   0  0  0  0  0  0  0  0  0  0  0  0
   17.0497  -18.0011   -9.7007 H   0  0  0  0  0  0  0  0  0  0  0  0
   15.9483  -13.5968   -8.5670 H   0  0  0  0  0  0  0  0  0  0  0  0
   15.1056  -15.3427   -6.8375 H   0  0  0  0  0  0  0  0  0  0  0  0
   18.8130  -24.4291  -11.6121 H   0  0  0  0  0  0  0  0  0  0  0  0
   18.6058  -20.6993  -11.8922 H   0  0  0  0  0  0  0  0  0  0  0  0
   19.9043  -22.5520  -13.7848 H   0  0  0  0  0  0  0  0  0  0  0  0
   19.1364  -19.4478  -13.0047 H   0  0  0  0  0  0  0  0  0  0  0  0
   20.3918  -23.0346  -14.5353 H   0  0  0  0  0  0  0  0  0  0  0  0
   21.4889  -22.0405  -16.5707 H   0  0  0  0  0  0  0  0  0  0  0  0
   21.3725  -19.7531  -16.7592 H   0  0  0  0  0  0  0  0  0  0  0  0
   20.4650  -24.4072  -10.7616 H   0  0  0  0  0  0  0  0  0  0  0  0
   16.9668  -24.3058   -8.6429 H   0  0  0  0  0  0  0  0  0  0  0  0
  1  2  1  0
  2  3  1  0
  3  4  1  0
  4  5  1  0
  5  6  1  0
  5  7  1  0
  3  8  1  0
  8  9  1  0
  9 10  1  0
 10 11  1  0
 11 12  1  0
 12 13  1  0
 11 14  1  0
 14 15  1  0
 15 16  1  0
 16 17  1  0
 17 18  1  0
 18 19  1  0
 19 20  1  0
 20 21  1  0
 21 22  1  0
 22 23  1  0
 23 24  1  0
 24 25  1  0
 17 26  1  0
 26 27  1  0
 27 28  1  0
 28 29  1  0
 29 30  1  0
 30 31  1  0
 31 32  1  0
 32 33  1  0
 33 34  1  0
 33 35  1  0
 35 36  1  0
 36 37  1  0
 17 38  1  0
 38 39  1  0
 39 40  1  0
 40 41  1  0
 41 42  1  0
 42 43  1  0
 16 44  1  0
 44 45  1  0
 44  9  1  0
 45 14  1  0
 45 16  1  0
 24 20  1  0
 30 27  1  0
 33 31  1  0
 43 40  1  0
 31 27  1  0
 43 41  1  0
  1 46  1  0
  1 47  1  0
  1 48  1  0
  2 49  1  0
  2 50  1  0
  3 51  1  0
  4 52  1  0
  4 53  1  0
  5 54  1  0
  6 55  1  0
  6 56  1  0
  6 57  1  0
  7 58  1  0
  7 59  1  0
  7 60  1  0
  8 61  1  0
  8 62  1  0
  9 63  1  0
 10 64  1  0
 10 65  1  0
 11 66  1  0
 12 67  1  0
 12 68  1  0
 13 69  1  0
 13 70  1  0
 13 71  1  0
 14 72  1  0
 15 73  1  0
 15 74  1  0
 18 75  1  0
 18 76  1  0
 19 77  1  0
 19 78  1  0
 20 79  1  0
 21 80  1  0
 21 81  1  0
 22 82  1  0
 22 83  1  0
 23 84  1  0
 23 85  1  0
 24 86  1  0
 25 87  1  0
 25 88  1  0
 26 89  1  0
 26 90  1  0
 28 91  1  0
 28 92  1  0
 30 93  1  0
 32 94  1  0
 32 95  1  0
 35 96  1  0
 35 97  1  0
 37 98  1  0
 37 99  1  0
 38100  1  0
 39101  1  0
 39102  1  0
 40103  1  0
 41104  1  0
 42105  1  0
 42106  1  0
 44107  1  0
 45108  1  0
M  END
