
     RDKit          2D

 62 67  0  0  0  0  0  0  0  0999 V2000
   17.4514  -22.2913  -14.3321 C   0  0  0  0  0  0  0  0  0  0  0  0
   17.1868  -21.6572  -12.9987 C   0  0  0  0  0  0  0  0  0  0  0  0
   16.9223  -21.0232  -11.6652 C   0  0  0  0  0  0  0  0  0  0  0  0
   15.8942  -20.4787  -12.6120 C   0  0  0  0  0  0  0  0  0  0  0  0
   14.7313  -19.5313  -12.6249 C   0  0  0  0  0  0  0  0  0  0  0  0
   13.9776  -18.6244  -11.6978 C   0  0  0  0  0  0  0  0  0  0  0  0
   13.9860  -18.1823  -10.2645 C   0  0  0  0  0  0  0  0  0  0  0  0
   15.1684  -19.0663   -9.9986 N   0  0  0  0  0  0  0  0  0  0  0  0
   15.7667  -19.1254   -8.6244 C   0  0  0  0  0  0  0  0  0  0  0  0
   15.1828  -18.3005   -7.5160 C   0  0  0  0  0  0  0  0  0  0  0  0
   14.0005  -17.4165   -7.7818 C   0  0  0  0  0  0  0  0  0  0  0  0
   12.8181  -16.5325   -8.0476 C   0  0  0  0  0  0  0  0  0  0  0  0
   12.6210  -15.9436   -6.6823 F   0  0  0  0  0  0  0  0  0  0  0  0
   13.4020  -17.3574   -9.1561 C   0  0  0  0  0  0  0  0  0  0  0  0
   12.8037  -17.2983  -10.5302 O   0  0  0  0  0  0  0  0  0  0  0  0
   16.9380  -20.1922   -8.9714 C   0  0  0  0  0  0  0  0  0  0  0  0
   18.0518  -20.8717   -8.2314 C   0  0  0  0  0  0  0  0  0  0  0  0
   18.4484  -21.5895   -9.4874 C   0  0  0  0  0  0  0  0  0  0  0  0
   18.8450  -22.3073  -10.7434 C   0  0  0  0  0  0  0  0  0  0  0  0
   19.2415  -23.0251  -11.9994 C   0  0  0  0  0  0  0  0  0  0  0  0
   20.2968  -23.6144  -11.1111 Br  0  0  0  0  0  0  0  0  0  0  0  0
   19.6381  -23.7429  -13.2554 C   0  0  0  0  0  0  0  0  0  0  0  0
   20.0346  -24.4607  -14.5114 C   0  0  0  0  0  0  0  0  0  0  0  0
   20.7533  -24.4206  -12.5159 C   0  0  0  0  0  0  0  0  0  0  0  0
   21.9370  -25.3030  -12.2506 C   0  0  0  0  0  0  0  0  0  0  0  0
   21.3375  -25.2452  -13.6244 C   0  0  0  0  0  0  0  0  0  0  0  0
   17.3345  -20.9100  -10.2274 C   0  0  0  0  0  0  0  0  0  0  0  0
   17.7159  -22.9254  -15.6655 H   0  0  0  0  0  0  0  0  0  0  0  0
   18.6618  -23.0776  -13.9237 H   0  0  0  0  0  0  0  0  0  0  0  0
   16.2645  -21.5770  -14.9072 H   0  0  0  0  0  0  0  0  0  0  0  0
   16.6267  -21.3477  -13.4740 H   0  0  0  0  0  0  0  0  0  0  0  0
   18.3627  -22.4873  -12.5763 H   0  0  0  0  0  0  0  0  0  0  0  0
   18.0840  -21.9721  -11.6609 H   0  0  0  0  0  0  0  0  0  0  0  0
   15.3561  -20.4770  -14.0123 H   0  0  0  0  0  0  0  0  0  0  0  0
   16.1623  -20.8939  -13.2375 H   0  0  0  0  0  0  0  0  0  0  0  0
   13.7066  -18.9917  -13.5783 H   0  0  0  0  0  0  0  0  0  0  0  0
   14.7160  -19.9683  -14.0598 H   0  0  0  0  0  0  0  0  0  0  0  0
   12.8474  -17.6508  -11.5413 H   0  0  0  0  0  0  0  0  0  0  0  0
   13.2060  -18.3893  -12.9624 H   0  0  0  0  0  0  0  0  0  0  0  0
   15.6226  -19.8186  -11.2142 H   0  0  0  0  0  0  0  0  0  0  0  0
   16.9392  -20.0567   -8.5354 H   0  0  0  0  0  0  0  0  0  0  0  0
   14.9857  -17.7116   -6.1507 H   0  0  0  0  0  0  0  0  0  0  0  0
   16.2967  -18.9800   -6.7761 H   0  0  0  0  0  0  0  0  0  0  0  0
   14.0088  -16.9744   -6.3485 H   0  0  0  0  0  0  0  0  0  0  0  0
   11.7042  -15.8531   -8.7876 H   0  0  0  0  0  0  0  0  0  0  0  0
   17.0493  -19.8288   -7.5204 H   0  0  0  0  0  0  0  0  0  0  0  0
   19.1657  -21.5512   -7.4915 H   0  0  0  0  0  0  0  0  0  0  0  0
   17.7941  -20.2421   -6.8946 H   0  0  0  0  0  0  0  0  0  0  0  0
   19.5623  -22.2689   -8.7475 H   0  0  0  0  0  0  0  0  0  0  0  0
   19.9596  -22.9858  -10.0037 H   0  0  0  0  0  0  0  0  0  0  0  0
   17.7870  -21.7213  -11.6307 H   0  0  0  0  0  0  0  0  0  0  0  0
   18.1862  -22.4358  -12.8878 H   0  0  0  0  0  0  0  0  0  0  0  0
   18.5795  -23.1577  -14.1424 H   0  0  0  0  0  0  0  0  0  0  0  0
   20.4312  -25.1785  -15.7674 H   0  0  0  0  0  0  0  0  0  0  0  0
   21.2107  -25.2944  -14.0970 H   0  0  0  0  0  0  0  0  0  0  0  0
   18.9213  -23.7805  -15.2516 H   0  0  0  0  0  0  0  0  0  0  0  0
   20.7002  -23.9324  -11.0986 H   0  0  0  0  0  0  0  0  0  0  0  0
   22.1512  -25.0203  -10.7932 H   0  0  0  0  0  0  0  0  0  0  0  0
   23.0462  -26.2836  -12.4915 H   0  0  0  0  0  0  0  0  0  0  0  0
   22.2386  -26.2058  -14.3424 H   0  0  0  0  0  0  0  0  0  0  0  0
   20.6347  -25.0848  -14.9399 H   0  0  0  0  0  0  0  0  0  0  0  0
   16.1763  -20.1373  -10.7855 H   0  0  0  0  0  0  0  0  0  0  0  0
  1  2  1  0
  2  3  1  0
  3  4  1  0
  4  5  1  0
  5  6  1  0
  6  7  1  0
  7  8  1  0
  8  9  1  0
  9 10  1  0
 10 11  1  0
 11 12  1  0
 12 13  1  0
 12 14  1  0
 14 15  1  0
  9 16  1  0
 16 17  1  0
 17 18  1  0
 18 19  1  0
 19 20  1  0
 20 21  1  0
 20 22  1  0
 22 23  1  0
 22 24  1  0
 24 25  1  0
 25 26  1  0
 18 27  1  0
 27  3  1  0
 14  7  1  0
 27 16  1  0
 15  7  1  0
 26 24  1  0
 14 11  1  0
  1 28  1  0
  1 29  1  0
  1 30  1  0
  2 31  1  0
  2 32  1  0
  3 33  1  0
  4 34  1  0
  4 35  1  0
  5 36  1  0
  5 37  1  0
  6 38  1  0
  6 39  1  0
  8 40  1  0
  9 41  1  0
 10 42  1  0
 10 43  1  0
 11 44  1  0
 12 45  1  0
 16 46  1  0
 17 47  1  0
 17 48  1  0
 18 49  1  0
 19 50  1  0
 19 51  1  0
 20 52  1  0
 22 53  1  0
 23 54  1  0
 23 55  1  0
 23 56  1  0
 24 57  1  0
 25 58  1  0
 25 59  1  0
 26 60  1  0
 26 61  1  0
 27 62  1  0
M  END
