
     RDKit          2D

 27 28  0  0  0  0  0  0  0  0999 V2000
   15.9373  -22.5516   -9.9875 C   0  0  0  0  0  0  0  0  0  0  0  0
   16.9041  -22.6262   -8.8432 C   0  0  0  0  0  0  0  0  0  0  0  0
   18.3263  -22.1890   -9.0332 C   0  0  0  0  0  0  0  0  0  0  0  0
   18.2825  -21.7798  -10.4757 Se  0  0  0  0  0  2  0  0  0  0  0  0
   19.5180  -21.2532  -11.1438 C   0  0  0  0  0  0  0  0  0  0  0  0
   20.7534  -20.7267  -11.8118 C   0  0  0  0  0  0  0  0  0  0  0  0
   21.9889  -20.2001  -12.4799 N   0  0  0  0  0  0  0  0  0  0  0  0
   17.8710  -22.7007   -7.6988 C   0  0  0  0  0  0  0  0  0  0  0  0
   16.4487  -23.1379   -7.5087 C   0  0  0  0  0  0  0  0  0  0  0  0
   15.0113  -23.4329   -7.8196 O   0  0  0  0  0  0  0  0  0  0  0  0
   16.4927  -23.5471   -6.0663 C   0  0  0  0  0  0  0  0  0  0  0  0
   16.5365  -23.9564   -4.6239 O   0  0  0  0  0  0  0  0  0  0  0  0
   14.9704  -22.4770  -11.1319 H   0  0  0  0  0  0  0  0  0  0  0  0
   17.0213  -22.0038  -10.8677 H   0  0  0  0  0  0  0  0  0  0  0  0
   14.8532  -23.0994   -9.1073 H   0  0  0  0  0  0  0  0  0  0  0  0
   19.7639  -21.8940   -8.7224 H   0  0  0  0  0  0  0  0  0  0  0  0
   19.9947  -20.7061   -9.8310 H   0  0  0  0  0  0  0  0  0  0  0  0
   19.0412  -21.8003  -12.4566 H   0  0  0  0  0  0  0  0  0  0  0  0
   21.6026  -21.4192  -10.7875 H   0  0  0  0  0  0  0  0  0  0  0  0
   19.9043  -20.0342  -12.8363 H   0  0  0  0  0  0  0  0  0  0  0  0
   21.9450  -19.7909  -13.9224 H   0  0  0  0  0  0  0  0  0  0  0  0
   23.2683  -20.0828  -11.7057 H   0  0  0  0  0  0  0  0  0  0  0  0
   18.8379  -22.7753   -6.5544 H   0  0  0  0  0  0  0  0  0  0  0  0
   14.1116  -23.9853   -6.7540 H   0  0  0  0  0  0  0  0  0  0  0  0
   15.0410  -23.9201   -6.1279 H   0  0  0  0  0  0  0  0  0  0  0  0
   17.9441  -23.1742   -6.0046 H   0  0  0  0  0  0  0  0  0  0  0  0
   15.3010  -24.4829   -3.9557 H   0  0  0  0  0  0  0  0  0  0  0  0
  1  2  1  0
  2  3  1  0
  3  4  1  0
  4  5  1  0
  5  6  1  0
  6  7  1  0
  3  8  1  0
  8  9  1  0
  9 10  1  0
  9 11  1  0
 11 12  1  0
  8  2  1  0
  9  2  1  0
  1 13  1  0
  1 14  1  0
  1 15  1  0
  3 16  1  0
  5 17  1  0
  5 18  1  0
  6 19  1  0
  6 20  1  0
  7 21  1  0
  7 22  1  0
  8 23  1  0
 10 24  1  0
 11 25  1  0
 11 26  1  0
 12 27  1  0
M  END
