
     RDKit          2D

 67 69  0  0  0  0  0  0  0  0999 V2000
   13.4282  -21.7834   -8.9124 C   0  0  0  0  0  0  0  0  0  0  0  0
   14.7005  -21.9183   -8.1293 C   0  0  0  0  0  0  0  0  0  0  0  0
   15.9727  -22.0531   -7.3461 C   0  0  0  0  0  0  0  0  0  0  0  0
   16.9734  -21.9862   -8.4614 C   0  0  0  0  0  0  0  0  0  0  0  0
   17.9743  -21.9192   -9.5767 C   0  0  0  0  0  0  0  0  0  0  0  0
   19.2465  -22.0541   -8.7935 O   0  0  0  0  0  0  0  0  0  0  0  0
   17.0497  -21.7611  -10.7472 C   0  0  0  0  0  0  0  0  0  0  0  0
   16.3905  -21.5981  -12.0847 C   0  0  0  0  0  0  0  0  0  0  0  0
   17.4666  -21.5417  -13.1281 C   0  0  0  0  0  0  0  0  0  0  0  0
   18.7909  -21.6698  -12.4354 C   0  0  0  0  0  0  0  0  0  0  0  0
   19.3499  -21.5560  -13.8227 C   0  0  0  0  0  0  0  0  0  0  0  0
   19.9089  -21.4422  -15.2100 C   0  0  0  0  0  0  0  0  0  0  0  0
   20.7402  -21.6754  -13.2723 C   0  0  0  0  0  0  0  0  0  0  0  0
   18.5332  -21.8054  -10.9640 C   0  0  0  0  0  0  0  0  0  0  0  0
   19.9744  -21.9098  -10.5614 C   0  0  0  0  0  0  0  0  0  0  0  0
   21.4156  -22.0142  -10.1588 C   0  0  0  0  0  0  0  0  0  0  0  0
   15.4137  -22.1669   -5.9588 C   0  0  0  0  0  0  0  0  0  0  0  0
   16.8973  -22.2113   -6.1756 C   0  0  0  0  0  0  0  0  0  0  0  0
   17.3627  -22.3736   -4.7589 C   0  0  0  0  0  0  0  0  0  0  0  0
   18.7871  -22.3916   -5.2290 I   0  0  0  0  0  0  0  0  0  0  0  0
   17.8282  -22.5359   -3.3423 C   0  0  0  0  0  0  0  0  0  0  0  0
   19.2495  -22.6030   -3.8169 O   0  0  0  0  0  0  0  0  0  0  0  0
   18.2938  -22.6982   -1.9255 C   0  0  0  0  0  0  0  0  0  0  0  0
   18.7593  -22.8606   -0.5089 O   0  0  0  0  0  0  0  0  0  0  0  0
   20.2255  -22.9559   -0.2075 C   0  0  0  0  0  0  0  0  0  0  0  0
   20.5307  -22.1562   -1.4392 C   0  0  0  0  0  0  0  0  0  0  0  0
   19.9204  -23.7557    1.0242 N   0  0  0  0  0  0  0  0  0  0  0  0
   12.1561  -21.6485   -9.6956 H   0  0  0  0  0  0  0  0  0  0  0  0
   14.2200  -21.6957  -10.1834 H   0  0  0  0  0  0  0  0  0  0  0  0
   12.6366  -21.8710   -7.6414 H   0  0  0  0  0  0  0  0  0  0  0  0
   13.8097  -21.5722   -6.9730 H   0  0  0  0  0  0  0  0  0  0  0  0
   15.0336  -22.1529   -9.2739 H   0  0  0  0  0  0  0  0  0  0  0  0
   16.0700  -21.8654   -9.2648 H   0  0  0  0  0  0  0  0  0  0  0  0
   18.2025  -22.1261   -7.6128 H   0  0  0  0  0  0  0  0  0  0  0  0
   20.6445  -22.0620   -9.3369 H   0  0  0  0  0  0  0  0  0  0  0  0
   15.6253  -21.7447  -10.2773 H   0  0  0  0  0  0  0  0  0  0  0  0
   15.1210  -21.6214  -11.2860 H   0  0  0  0  0  0  0  0  0  0  0  0
   15.4659  -21.4399  -13.2552 H   0  0  0  0  0  0  0  0  0  0  0  0
   16.3170  -21.3953  -14.0805 H   0  0  0  0  0  0  0  0  0  0  0  0
   17.8269  -21.4868  -13.8370 H   0  0  0  0  0  0  0  0  0  0  0  0
   20.2714  -21.7581  -12.2111 H   0  0  0  0  0  0  0  0  0  0  0  0
   18.6528  -21.4857  -14.2029 H   0  0  0  0  0  0  0  0  0  0  0  0
   20.4679  -21.3284  -16.5973 H   0  0  0  0  0  0  0  0  0  0  0  0
   18.4598  -21.3705  -15.5904 H   0  0  0  0  0  0  0  0  0  0  0  0
   18.5960  -21.3428  -15.9286 H   0  0  0  0  0  0  0  0  0  0  0  0
   22.1304  -21.7947  -12.7219 H   0  0  0  0  0  0  0  0  0  0  0  0
   21.1254  -21.5514  -14.7167 H   0  0  0  0  0  0  0  0  0  0  0  0
   21.4643  -21.5804  -14.5826 H   0  0  0  0  0  0  0  0  0  0  0  0
   19.9198  -22.3306   -9.1227 H   0  0  0  0  0  0  0  0  0  0  0  0
   20.5627  -21.5179  -11.8843 H   0  0  0  0  0  0  0  0  0  0  0  0
   22.8568  -22.1185   -9.7562 H   0  0  0  0  0  0  0  0  0  0  0  0
   21.8262  -21.8870  -11.5958 H   0  0  0  0  0  0  0  0  0  0  0  0
   21.1837  -22.1532   -8.6833 H   0  0  0  0  0  0  0  0  0  0  0  0
   13.9206  -22.0884   -6.0798 H   0  0  0  0  0  0  0  0  0  0  0  0
   15.1817  -22.3041   -4.4832 H   0  0  0  0  0  0  0  0  0  0  0  0
   18.2953  -22.2192   -6.7190 H   0  0  0  0  0  0  0  0  0  0  0  0
   16.0058  -22.3755   -4.1197 H   0  0  0  0  0  0  0  0  0  0  0  0
   16.4069  -22.4688   -2.8675 H   0  0  0  0  0  0  0  0  0  0  0  0
   20.5720  -22.7642   -3.1275 H   0  0  0  0  0  0  0  0  0  0  0  0
   19.7195  -22.6216   -2.3853 H   0  0  0  0  0  0  0  0  0  0  0  0
   16.8680  -22.7749   -1.4658 H   0  0  0  0  0  0  0  0  0  0  0  0
   21.6918  -23.0513    0.0939 H   0  0  0  0  0  0  0  0  0  0  0  0
   20.9081  -21.5102   -2.7393 H   0  0  0  0  0  0  0  0  0  0  0  0
   21.1416  -23.3694   -2.0756 H   0  0  0  0  0  0  0  0  0  0  0  0
   20.0699  -20.7369   -1.2866 H   0  0  0  0  0  0  0  0  0  0  0  0
   18.6115  -24.4784    1.1441 H   0  0  0  0  0  0  0  0  0  0  0  0
   20.9241  -23.8327    2.1363 H   0  0  0  0  0  0  0  0  0  0  0  0
  1  2  1  0
  2  3  1  0
  3  4  1  0
  4  5  1  0
  5  6  1  0
  5  7  1  0
  7  8  1  0
  8  9  1  0
  9 10  1  0
 10 11  1  0
 11 12  1  0
 11 13  1  0
 10 14  1  0
 14 15  1  0
 15 16  1  0
  3 17  1  0
 17 18  1  0
 18 19  1  0
 19 20  1  0
 19 21  1  0
 21 22  1  0
 21 23  1  0
 23 24  1  0
 24 25  1  0
 25 26  1  0
 25 27  1  0
 18  3  1  0
 14  5  1  0
 14  7  1  0
  1 28  1  0
  1 29  1  0
  1 30  1  0
  2 31  1  0
  2 32  1  0
  4 33  1  0
  4 34  1  0
  6 35  1  0
  7 36  1  0
  8 37  1  0
  8 38  1  0
  9 39  1  0
  9 40  1  0
 10 41  1  0
 11 42  1  0
 12 43  1  0
 12 44  1  0
 12 45  1  0
 13 46  1  0
 13 47  1  0
 13 48  1  0
 15 49  1  0
 15 50  1  0
 16 51  1  0
 16 52  1  0
 16 53  1  0
 17 54  1  0
 17 55  1  0
 18 56  1  0
 19 57  1  0
 21 58  1  0
 22 59  1  0
 23 60  1  0
 23 61  1  0
 25 62  1  0
 26 63  1  0
 26 64  1  0
 26 65  1  0
 27 66  1  0
 27 67  1  0
M  END
