
     RDKit          2D

 55 56  0  0  0  0  0  0  0  0999 V2000
    6.0447   27.4519    7.0023 C   0  0  0  0  0  0  0  0  0  0  0  0
    6.6654   27.9293    5.7229 C   0  0  0  0  0  0  0  0  0  0  0  0
    7.2860   28.4066    4.4435 C   0  0  0  0  0  0  0  0  0  0  0  0
    8.4993   27.6813    4.9453 C   0  0  0  0  0  0  0  0  0  0  0  0
    9.5891   27.8411    3.9270 C   0  0  0  0  0  0  0  0  0  0  0  0
    9.0492   28.6653    2.7958 C   0  0  0  0  0  0  0  0  0  0  0  0
    7.6259   29.0148    3.1151 C   0  0  0  0  0  0  0  0  0  0  0  0
    6.2118   29.5131    3.1585 C   0  0  0  0  0  0  0  0  0  0  0  0
    4.7976   30.0116    3.2019 C   0  0  0  0  0  0  0  0  0  0  0  0
    3.3835   30.5100    3.2453 C   0  0  0  0  0  0  0  0  0  0  0  0
    1.9695   31.0084    3.2887 C   0  0  0  0  0  0  0  0  0  0  0  0
    2.1643   31.6769    1.9601 O   0  0  0  0  0  0  0  0  0  0  0  0
    0.5553   31.5068    3.3321 C   0  0  0  0  0  0  0  0  0  0  0  0
   -0.8588   32.0052    3.3754 C   0  0  0  0  0  0  0  0  0  0  0  0
    0.3659   30.8530    4.6687 C   0  0  0  0  0  0  0  0  0  0  0  0
   -0.9941   31.4568    4.4790 N   0  0  0  0  0  0  0  0  0  0  0  0
   -2.0484   31.2760    5.5305 C   0  0  0  0  0  0  0  0  0  0  0  0
   -1.7427   30.4914    6.7719 N   0  0  0  0  0  0  0  0  0  0  0  0
   -0.3828   29.8876    6.9616 C   0  0  0  0  0  0  0  0  0  0  0  0
    0.7473   29.1297    7.5928 C   0  0  0  0  0  0  0  0  0  0  0  0
    0.6715   30.0685    5.9101 S   0  0  0  0  0  0  0  0  0  0  0  0
    5.4240   26.9746    8.2817 H   0  0  0  0  0  0  0  0  0  0  0  0
    7.4084   27.1613    7.5554 H   0  0  0  0  0  0  0  0  0  0  0  0
    4.6810   27.7425    6.4492 H   0  0  0  0  0  0  0  0  0  0  0  0
    7.3454   27.7813    6.1116 H   0  0  0  0  0  0  0  0  0  0  0  0
    5.2998   28.1511    5.1432 H   0  0  0  0  0  0  0  0  0  0  0  0
    5.8941   28.9610    4.3707 H   0  0  0  0  0  0  0  0  0  0  0  0
    9.5299   26.8879    5.6925 H   0  0  0  0  0  0  0  0  0  0  0  0
    8.1112   27.4600    5.6055 H   0  0  0  0  0  0  0  0  0  0  0  0
   10.8466   27.8282    3.1094 H   0  0  0  0  0  0  0  0  0  0  0  0
   10.3917   27.0143    4.8871 H   0  0  0  0  0  0  0  0  0  0  0  0
    8.7960   29.4507    1.5433 H   0  0  0  0  0  0  0  0  0  0  0  0
   10.4197   28.4800    2.2148 H   0  0  0  0  0  0  0  0  0  0  0  0
    7.6701   29.7271    1.7957 H   0  0  0  0  0  0  0  0  0  0  0  0
    5.8474   28.9140    4.4845 H   0  0  0  0  0  0  0  0  0  0  0  0
    6.4052   30.1780    1.8278 H   0  0  0  0  0  0  0  0  0  0  0  0
    4.9911   30.6762    1.8711 H   0  0  0  0  0  0  0  0  0  0  0  0
    4.6043   29.3469    4.5326 H   0  0  0  0  0  0  0  0  0  0  0  0
    3.8944   31.4969    2.2378 H   0  0  0  0  0  0  0  0  0  0  0  0
    3.0425   29.4544    4.2549 H   0  0  0  0  0  0  0  0  0  0  0  0
    1.7746   30.3399    4.6173 H   0  0  0  0  0  0  0  0  0  0  0  0
    3.4107   31.6808    1.1256 H   0  0  0  0  0  0  0  0  0  0  0  0
    0.7448   32.1606    1.9953 H   0  0  0  0  0  0  0  0  0  0  0  0
   -2.2728   32.5037    3.4187 H   0  0  0  0  0  0  0  0  0  0  0  0
   -0.3816   33.3097    3.9417 H   0  0  0  0  0  0  0  0  0  0  0  0
   -1.6639   30.8602    2.8363 H   0  0  0  0  0  0  0  0  0  0  0  0
    1.7635   30.3108    4.7191 H   0  0  0  0  0  0  0  0  0  0  0  0
   -1.6280   32.2772    3.3949 H   0  0  0  0  0  0  0  0  0  0  0  0
   -3.3680   31.3802    6.2361 H   0  0  0  0  0  0  0  0  0  0  0  0
   -2.8123   32.0968    4.5342 H   0  0  0  0  0  0  0  0  0  0  0  0
   -2.7969   30.3106    7.8234 H   0  0  0  0  0  0  0  0  0  0  0  0
   -1.0445   29.4436    8.2324 H   0  0  0  0  0  0  0  0  0  0  0  0
    1.8774   28.3717    8.2239 H   0  0  0  0  0  0  0  0  0  0  0  0
    1.6920   29.6849    6.5684 H   0  0  0  0  0  0  0  0  0  0  0  0
   -0.1972   28.5744    8.6172 H   0  0  0  0  0  0  0  0  0  0  0  0
  1  2  1  0
  2  3  1  0
  3  4  1  0
  4  5  1  0
  5  6  1  0
  6  7  1  0
  7  8  1  0
  8  9  1  0
  9 10  1  0
 10 11  1  0
 11 12  1  0
 11 13  1  0
 13 14  1  0
 13 15  1  0
 15 16  1  0
 16 17  1  0
 17 18  1  0
 18 19  1  0
 19 20  1  0
 19 21  1  0
  7  3  1  0
 21 15  1  0
  1 22  1  0
  1 23  1  0
  1 24  1  0
  2 25  1  0
  2 26  1  0
  3 27  1  0
  4 28  1  0
  4 29  1  0
  5 30  1  0
  5 31  1  0
  6 32  1  0
  6 33  1  0
  7 34  1  0
  8 35  1  0
  8 36  1  0
  9 37  1  0
  9 38  1  0
 10 39  1  0
 10 40  1  0
 11 41  1  0
 12 42  1  0
 13 43  1  0
 14 44  1  0
 14 45  1  0
 14 46  1  0
 15 47  1  0
 16 48  1  0
 17 49  1  0
 17 50  1  0
 18 51  1  0
 19 52  1  0
 20 53  1  0
 20 54  1  0
 20 55  1  0
M  END
