
     RDKit          2D

 24 25  0  0  0  0  0  0  0  0999 V2000
   -3.2184   23.8834    4.3513 C   0  0  0  0  0  0  0  0  0  0  0  0
   -3.0461   25.1450    5.1444 C   0  0  0  0  0  0  0  0  0  0  0  0
   -2.5819   25.8582    3.9091 O   0  0  0  0  0  0  0  0  0  0  0  0
   -2.8738   26.4064    5.9374 C   0  0  0  0  0  0  0  0  0  0  0  0
   -2.7015   27.6679    6.7305 C   0  0  0  0  0  0  0  0  0  0  0  0
   -3.1083   27.3063    8.1283 C   0  0  0  0  0  0  0  0  0  0  0  0
   -2.6560   28.7020    7.8161 C   0  0  0  0  0  0  0  0  0  0  0  0
   -2.1600   29.7166    6.8288 O   0  0  0  0  0  0  0  0  0  0  0  0
   -2.2055   28.6825    5.7432 C   0  0  0  0  0  0  0  0  0  0  0  0
   -2.2510   27.6483    4.6577 O   0  0  0  0  0  0  0  0  0  0  0  0
   -1.8439   28.0099    3.2599 Se  0  0  0  0  0  2  0  0  0  0  0  0
   -1.8894   26.9757    2.1743 O   0  0  0  0  0  0  0  0  0  0  0  0
   -3.3907   22.6220    3.5582 H   0  0  0  0  0  0  0  0  0  0  0  0
   -3.6824   23.1702    5.5866 H   0  0  0  0  0  0  0  0  0  0  0  0
   -2.7789   24.4376    3.0285 H   0  0  0  0  0  0  0  0  0  0  0  0
   -3.5103   24.4318    6.3796 H   0  0  0  0  0  0  0  0  0  0  0  0
   -2.1459   25.2343    2.6165 H   0  0  0  0  0  0  0  0  0  0  0  0
   -2.6171   25.4471    7.0617 H   0  0  0  0  0  0  0  0  0  0  0  0
   -3.1556   26.8403    4.6906 H   0  0  0  0  0  0  0  0  0  0  0  0
   -3.5021   25.8591    8.1100 H   0  0  0  0  0  0  0  0  0  0  0  0
   -3.3923   27.4464    9.5945 H   0  0  0  0  0  0  0  0  0  0  0  0
   -2.7404   29.4384    9.1202 H   0  0  0  0  0  0  0  0  0  0  0  0
   -1.7095   29.6971    4.7560 H   0  0  0  0  0  0  0  0  0  0  0  0
   -1.4824   27.3372    0.7766 H   0  0  0  0  0  0  0  0  0  0  0  0
  1  2  1  0
  2  3  1  0
  2  4  1  0
  4  5  1  0
  5  6  1  0
  6  7  1  0
  7  8  1  0
  8  9  1  0
  9 10  1  0
 10 11  1  0
 11 12  1  0
  7  5  1  0
  9  5  1  0
  1 13  1  0
  1 14  1  0
  1 15  1  0
  2 16  1  0
  3 17  1  0
  4 18  1  0
  4 19  1  0
  6 20  1  0
  6 21  1  0
  7 22  1  0
  9 23  1  0
 12 24  1  0
M  END
