
     RDKit          2D

 44 47  0  0  0  0  0  0  0  0999 V2000
    5.1260   23.5485    7.0269 C   0  0  0  0  0  0  0  0  0  0  0  0
    4.0761   22.4950    6.8324 C   0  0  0  0  0  0  0  0  0  0  0  0
    2.5998   22.2319    6.8680 C   0  0  0  0  0  0  0  0  0  0  0  0
    1.2610   22.8597    7.1200 C   0  0  0  0  0  0  0  0  0  0  0  0
    0.5711   24.1385    7.4923 C   0  0  0  0  0  0  0  0  0  0  0  0
   -0.5845   23.1956    7.3332 C   0  0  0  0  0  0  0  0  0  0  0  0
   -0.8303   24.6258    7.7130 C   0  0  0  0  0  0  0  0  0  0  0  0
    0.7936   25.5800    7.8425 C   0  0  0  0  0  0  0  0  0  0  0  0
    1.8435   26.6336    8.0370 C   0  0  0  0  0  0  0  0  0  0  0  0
    0.5820   27.3949    8.3175 C   0  0  0  0  0  0  0  0  0  0  0  0
    1.9101   28.0871    8.4011 C   0  0  0  0  0  0  0  0  0  0  0  0
    1.4613   29.4668    8.7821 C   0  0  0  0  0  0  0  0  0  0  0  0
    0.5514   30.6060    9.1342 C   0  0  0  0  0  0  0  0  0  0  0  0
   -0.0227   29.2538    8.8310 C   0  0  0  0  0  0  0  0  0  0  0  0
    3.3199   26.8967    8.0014 N   0  0  0  0  0  0  0  0  0  0  0  0
    4.6587   26.2689    7.7493 C   0  0  0  0  0  0  0  0  0  0  0  0
    5.3486   24.9900    7.3771 C   0  0  0  0  0  0  0  0  0  0  0  0
    6.6213   23.6353    6.9453 H   0  0  0  0  0  0  0  0  0  0  0  0
    5.9727   22.3636    6.6676 H   0  0  0  0  0  0  0  0  0  0  0  0
    5.3234   21.7121    6.5474 H   0  0  0  0  0  0  0  0  0  0  0  0
    4.0357   21.0410    6.4664 H   0  0  0  0  0  0  0  0  0  0  0  0
    3.1227   20.8782    6.4884 H   0  0  0  0  0  0  0  0  0  0  0  0
    1.6878   21.0641    6.6350 H   0  0  0  0  0  0  0  0  0  0  0  0
    0.8598   21.4523    6.7909 H   0  0  0  0  0  0  0  0  0  0  0  0
    0.5754   22.4568    7.0654 H   0  0  0  0  0  0  0  0  0  0  0  0
   -0.2809   22.4866    7.1323 H   0  0  0  0  0  0  0  0  0  0  0  0
   -1.9958   22.6882    7.3023 H   0  0  0  0  0  0  0  0  0  0  0  0
   -2.3268   24.6150    7.8140 H   0  0  0  0  0  0  0  0  0  0  0  0
   -0.9204   26.0756    8.0870 H   0  0  0  0  0  0  0  0  0  0  0  0
   -0.6727   25.8470    8.0118 H   0  0  0  0  0  0  0  0  0  0  0  0
   -0.3265   26.5258    8.1600 H   0  0  0  0  0  0  0  0  0  0  0  0
   -0.6668   26.5729    8.1956 H   0  0  0  0  0  0  0  0  0  0  0  0
   -0.4661   28.4155    8.6491 H   0  0  0  0  0  0  0  0  0  0  0  0
    3.3941   28.3001    8.3522 H   0  0  0  0  0  0  0  0  0  0  0  0
    2.6956   30.3096    8.9103 H   0  0  0  0  0  0  0  0  0  0  0  0
    1.5635   31.6938    9.3399 H   0  0  0  0  0  0  0  0  0  0  0  0
   -0.7101   31.3676    9.4148 H   0  0  0  0  0  0  0  0  0  0  0  0
   -1.4834   29.5457    9.0063 H   0  0  0  0  0  0  0  0  0  0  0  0
   -0.4491   27.8531    8.5053 H   0  0  0  0  0  0  0  0  0  0  0  0
    3.8939   28.2488    8.3046 H   0  0  0  0  0  0  0  0  0  0  0  0
    4.8812   27.7103    8.0996 H   0  0  0  0  0  0  0  0  0  0  0  0
    6.0940   26.7043    7.7603 H   0  0  0  0  0  0  0  0  0  0  0  0
    6.5207   25.9134    7.5301 H   0  0  0  0  0  0  0  0  0  0  0  0
    6.7589   24.5268    7.1619 H   0  0  0  0  0  0  0  0  0  0  0  0
  1  2  1  0
  2  3  1  0
  3  4  1  0
  4  5  1  0
  5  6  1  0
  6  7  1  0
  5  8  1  0
  8  9  1  0
  9 10  1  0
 10 11  1  0
 11 12  1  0
 12 13  1  0
 13 14  1  0
  9 15  1  0
 15 16  1  0
 16 17  1  0
 17  1  1  0
  7  5  1  0
 11  9  1  0
 14 12  1  0
  1 18  1  0
  1 19  1  0
  2 20  1  0
  2 21  1  0
  3 22  1  0
  3 23  1  0
  4 24  1  0
  4 25  1  0
  6 26  1  0
  6 27  1  0
  7 28  1  0
  7 29  1  0
  8 30  1  0
  8 31  1  0
 10 32  1  0
 10 33  1  0
 11 34  1  0
 12 35  1  0
 13 36  1  0
 13 37  1  0
 14 38  1  0
 14 39  1  0
 15 40  1  0
 16 41  1  0
 16 42  1  0
 17 43  1  0
 17 44  1  0
M  END
