
     RDKit          2D

 91 94  0  0  0  0  0  0  0  0999 V2000
   21.1986  -18.6448  -15.1346 C   0  0  0  0  0  0  0  0  0  0  0  0
   19.7385  -18.3367  -14.9819 C   0  0  0  0  0  0  0  0  0  0  0  0
   18.2785  -18.0285  -14.8292 C   0  0  0  0  0  0  0  0  0  0  0  0
   16.8184  -17.7204  -14.6764 C   0  0  0  0  0  0  0  0  0  0  0  0
   15.3584  -17.4123  -14.5236 O   0  0  0  0  0  0  0  0  0  0  0  0
   18.2411  -18.8329  -13.5636 C   0  0  0  0  0  0  0  0  0  0  0  0
   18.2038  -19.6373  -12.2981 O   0  0  0  0  0  0  0  0  0  0  0  0
   19.3919  -20.4605  -11.8973 C   0  0  0  0  0  0  0  0  0  0  0  0
   18.6627  -20.9140  -10.6673 C   0  0  0  0  0  0  0  0  0  0  0  0
   17.9336  -21.3674   -9.4374 C   0  0  0  0  0  0  0  0  0  0  0  0
   19.1231  -22.1880   -9.0348 C   0  0  0  0  0  0  0  0  0  0  0  0
   20.3492  -22.2055   -9.8986 C   0  0  0  0  0  0  0  0  0  0  0  0
   21.7290  -22.5425  -10.3808 C   0  0  0  0  0  0  0  0  0  0  0  0
   23.1088  -22.8796  -10.8631 C   0  0  0  0  0  0  0  0  0  0  0  0
   21.9368  -23.4135   -9.1775 C   0  0  0  0  0  0  0  0  0  0  0  0
   22.1446  -24.2846   -7.9741 C   0  0  0  0  0  0  0  0  0  0  0  0
   22.3523  -25.1556   -6.7707 C   0  0  0  0  0  0  0  0  0  0  0  0
   22.5601  -26.0265   -5.5673 C   0  0  0  0  0  0  0  0  0  0  0  0
   22.7680  -26.8976   -4.3639 C   0  0  0  0  0  0  0  0  0  0  0  0
   21.6769  -27.0412   -3.3446 C   0  0  0  0  0  0  0  0  0  0  0  0
   24.0668  -27.6250   -4.1798 O   0  0  0  0  0  0  0  0  0  0  0  0
   20.3859  -21.4025  -11.1652 C   0  0  0  0  0  0  0  0  0  0  0  0
   19.1965  -20.5821  -11.5677 N   0  0  0  0  0  0  0  0  0  0  0  0
   17.9704  -20.5645  -10.7038 C   0  0  0  0  0  0  0  0  0  0  0  0
   16.7442  -20.5470   -9.8400 C   0  0  0  0  0  0  0  0  0  0  0  0
   15.8197  -20.8510   -8.6986 C   0  0  0  0  0  0  0  0  0  0  0  0
   14.8950  -21.1551   -7.5573 C   0  0  0  0  0  0  0  0  0  0  0  0
   14.2079  -21.6369   -6.3140 C   0  0  0  0  0  0  0  0  0  0  0  0
   12.8409  -21.0210   -6.2717 C   0  0  0  0  0  0  0  0  0  0  0  0
   12.6832  -20.1586   -7.4887 C   0  0  0  0  0  0  0  0  0  0  0  0
   13.9527  -20.2415   -8.2832 C   0  0  0  0  0  0  0  0  0  0  0  0
   20.1209  -20.0071  -13.1273 N   0  0  0  0  0  0  0  0  0  0  0  0
   19.4554  -19.0698  -14.0909 C   0  0  0  0  0  0  0  0  0  0  0  0
   18.1324  -18.8898  -13.4074 N   0  0  0  0  0  2  0  0  0  0  0  0
   19.2494  -18.1951  -15.2918 N   0  0  0  0  0  2  0  0  0  0  0  0
   20.5474  -18.9244  -15.1089 C   0  0  0  0  0  0  0  0  0  0  0  0
   21.2765  -18.4709  -16.3389 C   0  0  0  0  0  0  0  0  0  0  0  0
   22.6529  -18.8506  -15.4393 H   0  0  0  0  0  0  0  0  0  0  0  0
   21.5115  -19.5150  -13.9537 H   0  0  0  0  0  0  0  0  0  0  0  0
   21.4180  -17.8684  -16.3992 H   0  0  0  0  0  0  0  0  0  0  0  0
   19.7798  -17.5186  -16.2384 H   0  0  0  0  0  0  0  0  0  0  0  0
   19.4253  -17.4683  -16.1642 H   0  0  0  0  0  0  0  0  0  0  0  0
   18.3159  -17.2242  -16.0947 H   0  0  0  0  0  0  0  0  0  0  0  0
   16.7802  -18.5280  -13.4130 H   0  0  0  0  0  0  0  0  0  0  0  0
   16.5023  -16.8622  -15.8654 H   0  0  0  0  0  0  0  0  0  0  0  0
   14.5923  -17.9683  -13.3600 H   0  0  0  0  0  0  0  0  0  0  0  0
   19.6014  -19.1119  -14.1310 H   0  0  0  0  0  0  0  0  0  0  0  0
   16.8485  -18.3447  -13.2945 H   0  0  0  0  0  0  0  0  0  0  0  0
   20.7210  -21.1497  -11.8060 H   0  0  0  0  0  0  0  0  0  0  0  0
   19.9968  -21.5928  -10.5694 H   0  0  0  0  0  0  0  0  0  0  0  0
   17.8103  -19.9928  -11.4887 H   0  0  0  0  0  0  0  0  0  0  0  0
   19.8518  -23.1248   -8.1177 H   0  0  0  0  0  0  0  0  0  0  0  0
   18.1985  -22.4920   -7.8934 H   0  0  0  0  0  0  0  0  0  0  0  0
   20.6271  -23.0967   -8.7246 H   0  0  0  0  0  0  0  0  0  0  0  0
   21.6910  -21.7191  -11.6341 H   0  0  0  0  0  0  0  0  0  0  0  0
   24.4886  -23.2167  -11.3452 H   0  0  0  0  0  0  0  0  0  0  0  0
   23.4829  -23.7860   -9.7280 H   0  0  0  0  0  0  0  0  0  0  0  0
   22.9014  -22.0078  -12.0659 H   0  0  0  0  0  0  0  0  0  0  0  0
   23.3310  -23.8557   -9.5103 H   0  0  0  0  0  0  0  0  0  0  0  0
   20.6489  -23.2959   -8.4175 H   0  0  0  0  0  0  0  0  0  0  0  0
   23.5246  -24.6211   -8.4559 H   0  0  0  0  0  0  0  0  0  0  0  0
   20.7645  -23.9480   -7.4922 H   0  0  0  0  0  0  0  0  0  0  0  0
   20.9731  -24.8174   -6.2877 H   0  0  0  0  0  0  0  0  0  0  0  0
   23.7317  -25.4937   -7.2536 H   0  0  0  0  0  0  0  0  0  0  0  0
   21.1783  -25.6939   -5.0880 H   0  0  0  0  0  0  0  0  0  0  0  0
   23.9421  -26.3592   -6.0466 H   0  0  0  0  0  0  0  0  0  0  0  0
   20.5860  -27.1849   -2.3252 H   0  0  0  0  0  0  0  0  0  0  0  0
   20.8064  -26.1197   -4.1464 H   0  0  0  0  0  0  0  0  0  0  0  0
   22.5475  -27.9628   -2.5426 H   0  0  0  0  0  0  0  0  0  0  0  0
   20.8974  -20.8135  -12.4464 H   0  0  0  0  0  0  0  0  0  0  0  0
   21.7767  -21.9277  -11.3648 H   0  0  0  0  0  0  0  0  0  0  0  0
   19.2332  -19.7791  -12.8342 H   0  0  0  0  0  0  0  0  0  0  0  0
   17.1604  -19.6321  -11.5550 H   0  0  0  0  0  0  0  0  0  0  0  0
   15.8759  -19.6209  -10.6389 H   0  0  0  0  0  0  0  0  0  0  0  0
   14.8950  -19.9348   -9.4438 H   0  0  0  0  0  0  0  0  0  0  0  0
   16.8649  -21.7369   -8.0879 H   0  0  0  0  0  0  0  0  0  0  0  0
   16.0308  -22.0052   -7.0699 H   0  0  0  0  0  0  0  0  0  0  0  0
   15.4872  -22.3863   -6.0865 H   0  0  0  0  0  0  0  0  0  0  0  0
   13.7882  -22.2754   -5.0232 H   0  0  0  0  0  0  0  0  0  0  0  0
   12.7070  -21.7883   -4.9897 H   0  0  0  0  0  0  0  0  0  0  0  0
   11.4458  -20.5655   -5.9613 H   0  0  0  0  0  0  0  0  0  0  0  0
   11.3210  -19.8834   -6.9239 H   0  0  0  0  0  0  0  0  0  0  0  0
   12.2407  -19.2386   -8.5877 H   0  0  0  0  0  0  0  0  0  0  0  0
   13.2448  -19.3041   -9.2162 H   0  0  0  0  0  0  0  0  0  0  0  0
   14.9648  -20.0158   -9.3671 H   0  0  0  0  0  0  0  0  0  0  0  0
   21.5156  -20.4909  -13.3936 H   0  0  0  0  0  0  0  0  0  0  0  0
   17.2448  -19.2247  -12.2455 H   0  0  0  0  0  0  0  0  0  0  0  0
   21.4716  -19.8415  -14.3643 H   0  0  0  0  0  0  0  0  0  0  0  0
   22.0056  -18.0175  -17.5688 H   0  0  0  0  0  0  0  0  0  0  0  0
   22.5453  -19.2313  -16.0901 H   0  0  0  0  0  0  0  0  0  0  0  0
   20.2994  -17.5637  -17.0263 H   0  0  0  0  0  0  0  0  0  0  0  0
  1  2  1  0
  2  3  1  0
  3  4  1  0
  4  5  1  0
  3  6  1  0
  6  7  1  0
  7  8  1  0
  8  9  1  0
  9 10  1  0
 10 11  1  0
 11 12  1  0
 12 13  1  0
 13 14  1  0
 13 15  1  0
 15 16  1  0
 16 17  1  0
 17 18  1  0
 18 19  1  0
 19 20  1  0
 19 21  2  0
 12 22  1  0
 22 23  1  0
 23 24  1  0
 24 25  1  0
 25 26  1  0
 26 27  1  0
 27 28  1  0
 28 29  1  0
 29 30  1  0
 30 31  1  0
  8 32  1  0
 32 33  1  0
 33 34  1  0
 33 35  1  0
 35 36  1  0
 36 37  1  0
 24 10  1  0
 31 27  1  0
 36 33  1  0
 25 10  1  0
  1 38  1  0
  1 39  1  0
  1 40  1  0
  2 41  1  0
  2 42  1  0
  3 43  1  0
  4 44  1  0
  4 45  1  0
  5 46  1  0
  6 47  1  0
  6 48  1  0
  8 49  1  0
  9 50  1  0
  9 51  1  0
 11 52  1  0
 11 53  1  0
 12 54  1  0
 13 55  1  0
 14 56  1  0
 14 57  1  0
 14 58  1  0
 15 59  1  0
 15 60  1  0
 16 61  1  0
 16 62  1  0
 17 63  1  0
 17 64  1  0
 18 65  1  0
 18 66  1  0
 20 67  1  0
 20 68  1  0
 20 69  1  0
 22 70  1  0
 22 71  1  0
 23 72  1  0
 24 73  1  0
 25 74  1  0
 26 75  1  0
 26 76  1  0
 27 77  1  0
 28 78  1  0
 28 79  1  0
 29 80  1  0
 29 81  1  0
 30 82  1  0
 30 83  1  0
 31 84  1  0
 31 85  1  0
 32 86  1  0
 34 87  1  0
 36 88  1  0
 37 89  1  0
 37 90  1  0
 37 91  1  0
M  RAD  2  34   2  35   2
M  END
