
     RDKit          2D

 94105  0  0  0  0  0  0  0  0999 V2000
    4.3901   29.1165    6.0975 C   0  0  0  0  0  0  0  0  0  0  0  0
    3.1641   28.3260    6.4472 C   0  0  0  0  0  0  0  0  0  0  0  0
    3.1570   27.4540    7.6677 C   0  0  0  0  0  0  0  0  0  0  0  0
    1.9454   28.4076    5.5766 S   0  0  0  0  0  0  0  0  0  0  0  0
    0.7196   27.6172    5.9263 C   0  0  0  0  0  0  0  0  0  0  0  0
    0.0076   26.6573    6.8329 C   0  0  0  0  0  0  0  0  0  0  0  0
   -1.3576   26.0363    6.8583 O   0  0  0  0  0  0  0  0  0  0  0  0
   -2.5763   26.1179    5.9876 C   0  0  0  0  0  0  0  0  0  0  0  0
   -2.3692   27.1115    4.7204 C   0  0  0  0  0  0  0  0  0  0  0  0
   -1.3762   26.7843    5.7960 C   0  0  0  0  0  0  0  0  0  0  0  0
   -1.3932   26.3171    6.4418 O   0  0  0  0  0  0  0  0  0  0  0  0
   -0.0110   27.4053    5.7707 C   0  0  0  0  0  0  0  0  0  0  0  0
    0.3612   28.3535    4.6696 C   0  0  0  0  0  0  0  0  0  0  0  0
   -0.6317   28.6807    3.5940 C   0  0  0  0  0  0  0  0  0  0  0  0
    0.5198   29.5212    3.1278 C   0  0  0  0  0  0  0  0  0  0  0  0
    1.5370   30.4225    2.4927 C   0  0  0  0  0  0  0  0  0  0  0  0
    1.8759   29.6774    3.7497 C   0  0  0  0  0  0  0  0  0  0  0  0
    2.4152   29.0316    4.9915 Mg  0  0  0  0  0  2  0  0  0  0  0  0
    0.5769   28.3685    4.7824 C   0  0  0  0  0  0  0  0  0  0  0  0
    1.8601   28.3822    5.5593 C   0  0  0  0  0  0  0  0  0  0  0  0
    3.1831   29.0730    5.4098 C   0  0  0  0  0  0  0  0  0  0  0  0
    1.7673   27.4243    6.8472 C   0  0  0  0  0  0  0  0  0  0  0  0
    1.7848   26.5596    8.0728 C   0  0  0  0  0  0  0  0  0  0  0  0
    0.9694   25.6105    8.9001 C   0  0  0  0  0  0  0  0  0  0  0  0
   -0.3674   24.9396    9.0131 C   0  0  0  0  0  0  0  0  0  0  0  0
   -1.7150   24.8031    8.3688 C   0  0  0  0  0  0  0  0  0  0  0  0
   -2.8466   23.9514    8.8632 C   0  0  0  0  0  0  0  0  0  0  0  0
   -3.6902   24.4015    7.7075 C   0  0  0  0  0  0  0  0  0  0  0  0
   -4.5339   24.8515    6.5518 C   0  0  0  0  0  0  0  0  0  0  0  0
   -5.3777   25.3016    5.3961 C   0  0  0  0  0  0  0  0  0  0  0  0
   -6.3457   24.3853    6.0841 C   0  0  0  0  0  0  0  0  0  0  0  0
   -6.9040   23.4232    7.0904 C   0  0  0  0  0  0  0  0  0  0  0  0
   -7.7195   24.1830    5.5168 C   0  0  0  0  0  0  0  0  0  0  0  0
   -8.1253   24.8970    4.2616 C   0  0  0  0  0  0  0  0  0  0  0  0
   -7.1572   25.8133    3.5737 C   0  0  0  0  0  0  0  0  0  0  0  0
   -5.7834   26.0156    4.1410 C   0  0  0  0  0  0  0  0  0  0  0  0
   -4.3815   26.5276    4.2903 C   0  0  0  0  0  0  0  0  0  0  0  0
   -2.9795   27.0397    4.4396 C   0  0  0  0  0  0  0  0  0  0  0  0
   -1.5775   27.5517    4.5890 O   0  0  0  0  0  0  0  0  0  0  0  0
   -2.5587   25.2531    7.2132 C   0  0  0  0  0  0  0  0  0  0  0  0
   -3.8242   25.2675    6.4078 C   0  0  0  0  0  0  0  0  0  0  0  0
   -1.6246   29.0079    2.5183 C   0  0  0  0  0  0  0  0  0  0  0  0
   -2.9898   28.3869    2.5437 O   0  0  0  0  0  0  0  0  0  0  0  0
   -1.9969   28.0597    3.6193 C   0  0  0  0  0  0  0  0  0  0  0  0
    5.6088   29.0349    6.9682 H   0  0  0  0  0  0  0  0  0  0  0  0
    4.5693   30.0319    4.9228 H   0  0  0  0  0  0  0  0  0  0  0  0
    3.1497   26.5820    8.8882 H   0  0  0  0  0  0  0  0  0  0  0  0
    4.5589   27.9660    7.8170 H   0  0  0  0  0  0  0  0  0  0  0  0
    4.5572   27.7533    8.1146 H   0  0  0  0  0  0  0  0  0  0  0  0
    2.0060   27.6364    6.6974 H   0  0  0  0  0  0  0  0  0  0  0  0
    1.3135   26.7101    7.5690 H   0  0  0  0  0  0  0  0  0  0  0  0
    0.0004   25.7853    8.0534 H   0  0  0  0  0  0  0  0  0  0  0  0
   -3.9316   25.4779    6.0457 H   0  0  0  0  0  0  0  0  0  0  0  0
   -3.6804   26.4053    4.8988 H   0  0  0  0  0  0  0  0  0  0  0  0
    1.5990   29.1342    4.3409 H   0  0  0  0  0  0  0  0  0  0  0  0
   -0.3800   29.9277    1.9986 H   0  0  0  0  0  0  0  0  0  0  0  0
    0.7499   30.9139    1.3142 H   0  0  0  0  0  0  0  0  0  0  0  0
    2.8275   31.1532    2.2671 H   0  0  0  0  0  0  0  0  0  0  0  0
    3.2168   30.3419    3.6483 H   0  0  0  0  0  0  0  0  0  0  0  0
    4.4363   29.8404    5.1093 H   0  0  0  0  0  0  0  0  0  0  0  0
    3.9802   28.5886    6.5846 H   0  0  0  0  0  0  0  0  0  0  0  0
    2.6916   29.7443    4.1618 H   0  0  0  0  0  0  0  0  0  0  0  0
    2.8438   27.1773    7.8622 H   0  0  0  0  0  0  0  0  0  0  0  0
    1.1589   24.8039   10.1506 H   0  0  0  0  0  0  0  0  0  0  0  0
    2.3170   25.7470    9.5445 H   0  0  0  0  0  0  0  0  0  0  0  0
   -1.1828   23.9905    9.8405 H   0  0  0  0  0  0  0  0  0  0  0  0
    0.3321   24.3890   10.2205 H   0  0  0  0  0  0  0  0  0  0  0  0
   -2.7916   25.0501    7.3539 H   0  0  0  0  0  0  0  0  0  0  0  0
   -3.9780   23.0997    9.3575 H   0  0  0  0  0  0  0  0  0  0  0  0
   -2.0028   23.5013   10.0189 H   0  0  0  0  0  0  0  0  0  0  0  0
   -4.7105   23.5012    8.3391 H   0  0  0  0  0  0  0  0  0  0  0  0
   -5.6567   24.6240    7.5201 H   0  0  0  0  0  0  0  0  0  0  0  0
   -3.8400   25.2165    5.2731 H   0  0  0  0  0  0  0  0  0  0  0  0
   -4.1166   26.0616    5.1096 H   0  0  0  0  0  0  0  0  0  0  0  0
   -5.3883   24.0266    7.1817 H   0  0  0  0  0  0  0  0  0  0  0  0
   -7.4622   22.4611    8.0968 H   0  0  0  0  0  0  0  0  0  0  0  0
   -8.2586   23.2698    6.4648 H   0  0  0  0  0  0  0  0  0  0  0  0
   -5.6854   23.3420    7.9614 H   0  0  0  0  0  0  0  0  0  0  0  0
   -9.1214   23.6710    5.3675 H   0  0  0  0  0  0  0  0  0  0  0  0
   -7.9718   23.2536    6.6669 H   0  0  0  0  0  0  0  0  0  0  0  0
   -8.9689   25.3471    3.1060 H   0  0  0  0  0  0  0  0  0  0  0  0
   -9.3863   24.1370    4.5483 H   0  0  0  0  0  0  0  0  0  0  0  0
   -6.5990   26.7754    2.5673 H   0  0  0  0  0  0  0  0  0  0  0  0
   -8.3371   25.9451    2.6570 H   0  0  0  0  0  0  0  0  0  0  0  0
   -5.7023   26.9075    2.9376 H   0  0  0  0  0  0  0  0  0  0  0  0
   -4.2904   26.7117    2.8044 H   0  0  0  0  0  0  0  0  0  0  0  0
   -4.3010   26.4074    5.7832 H   0  0  0  0  0  0  0  0  0  0  0  0
   -3.6371   27.6200    3.2227 H   0  0  0  0  0  0  0  0  0  0  0  0
   -3.3152   27.7894    3.1845 H   0  0  0  0  0  0  0  0  0  0  0  0
   -0.7221   28.4939    3.7949 H   0  0  0  0  0  0  0  0  0  0  0  0
   -4.9007   25.5145    5.3930 H   0  0  0  0  0  0  0  0  0  0  0  0
   -4.2904   24.3098    7.4640 H   0  0  0  0  0  0  0  0  0  0  0  0
   -3.0495   26.2218    5.5480 H   0  0  0  0  0  0  0  0  0  0  0  0
   -1.2524   29.9562    1.4173 H   0  0  0  0  0  0  0  0  0  0  0  0
  1  2  2  3
  2  3  1  0
  2  4  1  0
  4  5  1  0
  5  6  1  0
  6  7  1  0
  7  8  1  0
  8  9  1  0
  9 10  1  0
 10 11  2  0
 10 12  1  0
 12 13  1  0
 13 14  1  0
 14 15  1  0
 15 16  1  0
 16 17  1  0
 17 18  1  0
 18 19  1  0
 19 20  1  0
 20 21  1  0
 20 22  1  0
 22 23  1  0
 23 24  1  0
 24 25  1  0
 25 26  1  0
 26 27  1  0
 27 28  1  0
 28 29  1  0
 29 30  1  0
 30 31  1  0
 31 32  1  0
 31 33  1  0
 33 34  1  0
 34 35  1  0
 35 36  1  0
 36 37  1  0
 37 38  1  0
 38 39  1  0
 28 40  1  0
 40 41  1  0
 14 42  1  0
 42 43  1  0
 43 44  1  0
 13  5  1  0
 44 14  1  0
 40  8  1  0
 44 42  1  0
 44  9  1  0
 19 12  1  0
 23 20  1  0
 40 26  1  0
 22 12  1  0
 36 30  1  0
 17 15  1  0
 23 19  1  0
  1 45  1  0
  1 46  1  0
  3 47  1  0
  3 48  1  0
  3 49  1  0
  5 50  1  0
  6 51  1  0
  6 52  1  0
  8 53  1  0
  9 54  1  0
 13 55  1  0
 15 56  1  0
 16 57  1  0
 16 58  1  0
 17 59  1  0
 21 60  1  0
 21 61  1  0
 21 62  1  0
 22 63  1  0
 24 64  1  0
 24 65  1  0
 25 66  1  0
 25 67  1  0
 26 68  1  0
 27 69  1  0
 27 70  1  0
 28 71  1  0
 29 72  1  0
 29 73  1  0
 30 74  1  0
 31 75  1  0
 32 76  1  0
 32 77  1  0
 32 78  1  0
 33 79  1  0
 33 80  1  0
 34 81  1  0
 34 82  1  0
 35 83  1  0
 35 84  1  0
 36 85  1  0
 37 86  1  0
 37 87  1  0
 38 88  1  0
 38 89  1  0
 39 90  1  0
 41 91  1  0
 41 92  1  0
 41 93  1  0
 42 94  1  0
M  END
