
     RDKit          2D

 21 22  0  0  0  0  0  0  0  0999 V2000
   -3.8237   24.6540    7.2215 Cl  0  0  0  0  0  0  0  0  0  0  0  0
   -4.3789   26.0393    7.0703 C   0  0  0  0  0  0  0  0  0  0  0  0
   -3.5192   27.2294    7.3773 C   0  0  0  0  0  0  0  0  0  0  0  0
   -2.1042   27.0345    7.8355 C   0  0  0  0  0  0  0  0  0  0  0  0
   -0.6893   26.8395    8.2937 C   0  0  0  0  0  0  0  0  0  0  0  0
    0.5801   26.1477    8.6935 C   0  0  0  0  0  0  0  0  0  0  0  0
   -0.6167   25.3413    8.2847 O   0  0  0  0  0  0  0  0  0  0  0  0
   -5.7938   26.2343    6.6121 C   0  0  0  0  0  0  0  0  0  0  0  0
   -7.1835   25.9089    6.1507 C   0  0  0  0  0  0  0  0  0  0  0  0
   -6.2127   24.8037    6.4439 C   0  0  0  0  0  0  0  0  0  0  0  0
   -4.0745   28.6147    7.2260 H   0  0  0  0  0  0  0  0  0  0  0  0
   -2.2786   25.5477    7.7411 H   0  0  0  0  0  0  0  0  0  0  0  0
   -1.9300   28.5213    7.9299 H   0  0  0  0  0  0  0  0  0  0  0  0
   -0.2705   28.2699    8.4618 H   0  0  0  0  0  0  0  0  0  0  0  0
    1.4398   27.3380    9.0005 H   0  0  0  0  0  0  0  0  0  0  0  0
    1.5510   25.0425    8.9867 H   0  0  0  0  0  0  0  0  0  0  0  0
   -5.8664   27.7325    6.6211 H   0  0  0  0  0  0  0  0  0  0  0  0
   -7.7388   27.2941    5.9995 H   0  0  0  0  0  0  0  0  0  0  0  0
   -8.3805   25.1025    5.7419 H   0  0  0  0  0  0  0  0  0  0  0  0
   -7.0723   23.6134    6.1369 H   0  0  0  0  0  0  0  0  0  0  0  0
   -4.9431   24.1119    6.8437 H   0  0  0  0  0  0  0  0  0  0  0  0
  1  2  1  0
  2  3  2  3
  3  4  1  0
  4  5  1  0
  5  6  1  0
  6  7  1  0
  2  8  1  0
  8  9  1  0
  9 10  1  0
  7  5  1  0
 10  8  1  0
  3 11  1  0
  4 12  1  0
  4 13  1  0
  5 14  1  6
  6 15  1  0
  6 16  1  0
  8 17  1  0
  9 18  1  0
  9 19  1  0
 10 20  1  0
 10 21  1  0
M  END
