
     RDKit          2D

 50 51  0  0  0  0  0  0  0  0999 V2000
   -1.3791   23.1139    5.8242 C   0  0  0  0  0  0  0  0  0  0  0  0
   -1.2054   24.2137    4.8190 C   0  0  0  0  0  0  0  0  0  0  0  0
   -1.0316   25.3135    3.8138 C   0  0  0  0  0  0  0  0  0  0  0  0
   -0.8578   26.4132    2.8086 C   0  0  0  0  0  0  0  0  0  0  0  0
   -0.6841   27.5129    1.8035 C   0  0  0  0  0  0  0  0  0  0  0  0
   -1.8644   27.3904    0.8860 C   0  0  0  0  0  0  0  0  0  0  0  0
   -0.8446   28.4661    0.6564 C   0  0  0  0  0  0  0  0  0  0  0  0
    0.4257   29.1580    1.0536 C   0  0  0  0  0  0  0  0  0  0  0  0
    0.5862   28.2048    2.2006 N   0  0  0  0  0  0  0  0  0  0  0  0
    0.0639   24.6344    5.4987 O   0  0  0  0  0  0  0  0  0  0  0  0
    0.5463   23.8943    6.7109 C   0  0  0  0  0  0  0  0  0  0  0  0
    1.0289   23.1543    7.9232 C   0  0  0  0  0  0  0  0  0  0  0  0
    1.5113   22.4143    9.1355 C   0  0  0  0  0  0  0  0  0  0  0  0
    1.9937   21.6743   10.3477 C   0  0  0  0  0  0  0  0  0  0  0  0
    2.4763   20.9343   11.5599 O   0  0  0  0  0  0  0  0  0  0  0  0
    2.2150   24.0685    8.0091 C   0  0  0  0  0  0  0  0  0  0  0  0
    3.4012   24.9826    8.0951 C   0  0  0  0  0  0  0  0  0  0  0  0
    2.6980   23.3278    9.2208 C   0  0  0  0  0  0  0  0  0  0  0  0
    1.7320   24.8091    6.7975 C   0  0  0  0  0  0  0  0  0  0  0  0
    1.2490   25.5498    5.5859 F   0  0  0  0  0  0  0  0  0  0  0  0
   -1.5528   22.0142    6.8293 H   0  0  0  0  0  0  0  0  0  0  0  0
   -0.8241   23.0335    6.3907 H   0  0  0  0  0  0  0  0  0  0  0  0
   -2.6544   22.7004    5.1512 H   0  0  0  0  0  0  0  0  0  0  0  0
   -2.4746   23.7930    4.1392 H   0  0  0  0  0  0  0  0  0  0  0  0
   -2.3011   24.8931    3.1344 H   0  0  0  0  0  0  0  0  0  0  0  0
    0.2379   25.7338    4.4932 H   0  0  0  0  0  0  0  0  0  0  0  0
    0.5130   26.6916    3.3502 H   0  0  0  0  0  0  0  0  0  0  0  0
   -2.2396   26.0028    2.3937 H   0  0  0  0  0  0  0  0  0  0  0  0
   -2.6840   26.2343    1.3778 H   0  0  0  0  0  0  0  0  0  0  0  0
   -2.8039   27.6759   -0.2480 H   0  0  0  0  0  0  0  0  0  0  0  0
   -1.3284   29.2077   -0.5543 H   0  0  0  0  0  0  0  0  0  0  0  0
    1.6960   29.8498    1.4508 H   0  0  0  0  0  0  0  0  0  0  0  0
    0.2652   30.1111   -0.0935 H   0  0  0  0  0  0  0  0  0  0  0  0
    1.5979   28.0200    3.2926 H   0  0  0  0  0  0  0  0  0  0  0  0
   -0.0481   23.3643    6.7441 H   0  0  0  0  0  0  0  0  0  0  0  0
    1.5806   24.9603    6.5009 H   0  0  0  0  0  0  0  0  0  0  0  0
   -0.1573   22.2402    7.8372 H   0  0  0  0  0  0  0  0  0  0  0  0
    0.3253   21.5000    9.0493 H   0  0  0  0  0  0  0  0  0  0  0  0
    2.7789   23.1223    9.5124 H   0  0  0  0  0  0  0  0  0  0  0  0
    0.8074   20.7603   10.2620 H   0  0  0  0  0  0  0  0  0  0  0  0
    3.2301   22.4911   10.5805 H   0  0  0  0  0  0  0  0  0  0  0  0
    3.7456   21.3551   12.2396 H   0  0  0  0  0  0  0  0  0  0  0  0
    4.5873   25.8967    8.1811 H   0  0  0  0  0  0  0  0  0  0  0  0
    4.0237   24.3606    9.3099 H   0  0  0  0  0  0  0  0  0  0  0  0
    3.0677   25.8275    6.9014 H   0  0  0  0  0  0  0  0  0  0  0  0
    3.3220   22.7040   10.4339 H   0  0  0  0  0  0  0  0  0  0  0  0
    3.9344   24.1446    9.4536 H   0  0  0  0  0  0  0  0  0  0  0  0
    1.6637   22.2619    9.4308 H   0  0  0  0  0  0  0  0  0  0  0  0
    2.8509   25.8062    6.7346 H   0  0  0  0  0  0  0  0  0  0  0  0
    0.4953   23.9927    6.5650 H   0  0  0  0  0  0  0  0  0  0  0  0
  1  2  1  0
  2  3  1  0
  3  4  1  0
  4  5  1  0
  5  6  1  0
  6  7  1  0
  7  8  1  0
  8  9  1  0
  2 10  1  0
 10 11  1  0
 11 12  1  0
 12 13  1  0
 13 14  1  0
 14 15  1  0
 12 16  1  0
 16 17  1  0
 16 18  1  0
 16 19  1  0
 19 20  1  0
  7  5  1  0
  9  5  1  0
  1 21  1  0
  1 22  1  0
  1 23  1  0
  2 24  1  0
  3 25  1  0
  3 26  1  0
  4 27  1  0
  4 28  1  0
  6 29  1  0
  6 30  1  0
  7 31  1  0
  8 32  1  0
  8 33  1  0
  9 34  1  0
 11 35  1  0
 11 36  1  0
 12 37  1  0
 13 38  1  0
 13 39  1  0
 14 40  1  0
 14 41  1  0
 15 42  1  0
 17 43  1  0
 17 44  1  0
 17 45  1  0
 18 46  1  0
 18 47  1  0
 18 48  1  0
 19 49  1  0
 19 50  1  0
M  END
