
     RDKit          2D

 31 32  0  0  0  0  0  0  0  0999 V2000
    1.5315   28.6512    6.0384 C   0  0  0  0  0  0  0  0  0  0  0  0
    2.9023   28.5723    5.4346 C   0  0  0  0  0  0  0  0  0  0  0  0
    3.6316   29.8386    5.7732 N   0  0  0  0  0  0  0  0  0  0  0  0
    4.9295   30.5725    5.6093 C   0  0  0  0  0  0  0  0  0  0  0  0
    5.8931   31.7084    5.7856 C   0  0  0  0  0  0  0  0  0  0  0  0
    6.3003   30.4936    5.0055 N   0  0  0  0  0  0  0  0  0  0  0  0
    7.2205   29.6321    4.1924 C   0  0  0  0  0  0  0  0  0  0  0  0
    7.3385   28.3170    3.4806 C   0  0  0  0  0  0  0  0  0  0  0  0
    6.6093   27.0506    3.1421 C   0  0  0  0  0  0  0  0  0  0  0  0
    5.3114   26.3168    3.3060 C   0  0  0  0  0  0  0  0  0  0  0  0
    4.5822   25.0505    2.9674 C   0  0  0  0  0  0  0  0  0  0  0  0
    5.2607   23.9892    2.1530 O   0  0  0  0  0  0  0  0  0  0  0  0
    3.9406   26.3957    3.9098 C   0  0  0  0  0  0  0  0  0  0  0  0
    3.0204   27.2572    4.7228 N   0  0  0  0  0  0  0  0  0  0  0  0
    2.0681   29.5104    7.1446 H   0  0  0  0  0  0  0  0  0  0  0  0
    0.9948   27.7919    4.9322 H   0  0  0  0  0  0  0  0  0  0  0  0
    0.1606   28.7300    6.6422 H   0  0  0  0  0  0  0  0  0  0  0  0
    4.1257   31.5393    6.4275 H   0  0  0  0  0  0  0  0  0  0  0  0
    5.0495   32.6412    6.6031 H   0  0  0  0  0  0  0  0  0  0  0  0
    7.1498   32.5203    5.6780 H   0  0  0  0  0  0  0  0  0  0  0  0
    7.9497   30.8985    4.5310 H   0  0  0  0  0  0  0  0  0  0  0  0
    8.6202   29.7193    3.6605 H   0  0  0  0  0  0  0  0  0  0  0  0
    8.6933   28.9059    3.2203 H   0  0  0  0  0  0  0  0  0  0  0  0
    8.3817   27.5901    2.6849 H   0  0  0  0  0  0  0  0  0  0  0  0
    7.9307   26.8070    2.4755 H   0  0  0  0  0  0  0  0  0  0  0  0
    6.8975   25.7874    2.3864 H   0  0  0  0  0  0  0  0  0  0  0  0
    6.0948   25.3335    2.4878 H   0  0  0  0  0  0  0  0  0  0  0  0
    3.8341   24.9415    3.2202 H   0  0  0  0  0  0  0  0  0  0  0  0
    3.8210   25.6732    3.5946 H   0  0  0  0  0  0  0  0  0  0  0  0
    2.6427   25.6618    4.0736 H   0  0  0  0  0  0  0  0  0  0  0  0
    1.7224   26.5233    4.8867 H   0  0  0  0  0  0  0  0  0  0  0  0
  1  2  1  0
  2  3  2  0
  3  4  1  0
  4  5  1  0
  5  6  1  0
  6  7  1  0
  7  8  1  0
  8  9  1  0
  9 10  1  0
 10 11  1  0
 11 12  2  0
 10 13  1  0
 13 14  1  0
 14  2  1  0
  6  4  1  0
  1 15  1  0
  1 16  1  0
  1 17  1  0
  4 18  1  0
  5 19  1  0
  5 20  1  0
  7 21  1  0
  7 22  1  0
  8 23  1  0
  8 24  1  0
  9 25  1  0
  9 26  1  0
 10 27  1  0
 11 28  1  0
 13 29  1  0
 13 30  1  0
 14 31  1  0
M  END
