
     RDKit          2D

 69 71  0  0  0  0  0  0  0  0999 V2000
   18.0488  -18.0357  -24.2007 C   0  0  0  0  0  0  0  0  0  0  0  0
   18.0721  -18.3542  -22.7351 C   0  0  0  0  0  0  0  0  0  0  0  0
   18.0955  -18.6727  -21.2696 C   0  0  0  0  0  0  0  0  0  0  0  0
   18.1188  -18.9912  -19.8039 C   0  0  0  0  0  0  0  0  0  0  0  0
   18.3459  -17.5416  -19.4925 N   0  0  0  0  0  0  0  0  0  0  0  0
   18.1421  -19.3097  -18.3383 C   0  0  0  0  0  0  0  0  0  0  0  0
   19.0858  -18.1672  -18.1050 O   0  0  0  0  0  0  0  0  0  0  0  0
   18.1655  -19.6281  -16.8727 C   0  0  0  0  0  0  0  0  0  0  0  0
   18.1889  -19.9465  -15.4070 C   0  0  0  0  0  0  0  0  0  0  0  0
   17.2708  -21.1325  -15.3834 C   0  0  0  0  0  0  0  0  0  0  0  0
   17.8906  -20.6383  -14.1100 C   0  0  0  0  0  0  0  0  0  0  0  0
   16.9726  -21.8244  -14.0864 C   0  0  0  0  0  0  0  0  0  0  0  0
   16.1312  -22.6958  -14.9711 C   0  0  0  0  0  0  0  0  0  0  0  0
   15.6084  -23.0442  -16.3332 C   0  0  0  0  0  0  0  0  0  0  0  0
   15.2453  -23.8865  -14.7540 C   0  0  0  0  0  0  0  0  0  0  0  0
   14.8337  -24.6991  -13.5623 C   0  0  0  0  0  0  0  0  0  0  0  0
   14.0565  -25.8386  -12.9725 C   0  0  0  0  0  0  0  0  0  0  0  0
   13.2794  -26.9780  -12.3828 C   0  0  0  0  0  0  0  0  0  0  0  0
   15.1376  -24.6575  -12.0940 O   0  0  0  0  0  0  0  0  0  0  0  0
   15.9789  -23.7861  -11.2093 C   0  0  0  0  0  0  0  0  0  0  0  0
   16.5017  -23.4377   -9.8471 C   0  0  0  0  0  0  0  0  0  0  0  0
   17.0246  -23.0893   -8.4850 C   0  0  0  0  0  0  0  0  0  0  0  0
   17.5474  -22.7410   -7.1230 F   0  0  0  0  0  0  0  0  0  0  0  0
   16.8648  -22.5954  -11.4264 C   0  0  0  0  0  0  0  0  0  0  0  0
   17.7841  -21.5433  -10.8801 C   0  0  0  0  0  0  0  0  0  0  0  0
   17.2764  -21.7828  -12.6181 C   0  0  0  0  0  0  0  0  0  0  0  0
   18.0536  -20.6433  -13.2078 C   0  0  0  0  0  0  0  0  0  0  0  0
   18.0255  -17.7172  -25.6664 H   0  0  0  0  0  0  0  0  0  0  0  0
   19.0452  -16.9368  -23.9778 H   0  0  0  0  0  0  0  0  0  0  0  0
   17.0525  -19.1347  -24.4237 H   0  0  0  0  0  0  0  0  0  0  0  0
   19.0302  -17.2233  -22.5047 H   0  0  0  0  0  0  0  0  0  0  0  0
   17.1141  -19.4851  -22.9656 H   0  0  0  0  0  0  0  0  0  0  0  0
   17.1125  -19.7830  -21.4951 H   0  0  0  0  0  0  0  0  0  0  0  0
   19.0683  -17.5318  -21.2242 H   0  0  0  0  0  0  0  0  0  0  0  0
   17.8905  -20.3912  -20.2917 H   0  0  0  0  0  0  0  0  0  0  0  0
   19.6666  -16.8425  -19.3615 H   0  0  0  0  0  0  0  0  0  0  0  0
   17.2987  -16.4958  -19.2485 H   0  0  0  0  0  0  0  0  0  0  0  0
   17.2084  -20.4824  -18.3912 H   0  0  0  0  0  0  0  0  0  0  0  0
   19.6350  -17.2252  -19.1352 H   0  0  0  0  0  0  0  0  0  0  0  0
   17.4110  -20.5612  -17.0634 H   0  0  0  0  0  0  0  0  0  0  0  0
   19.0969  -18.4761  -16.6373 H   0  0  0  0  0  0  0  0  0  0  0  0
   19.1151  -18.8710  -14.9216 H   0  0  0  0  0  0  0  0  0  0  0  0
   16.9878  -21.2749  -16.3152 H   0  0  0  0  0  0  0  0  0  0  0  0
   18.6619  -19.8966  -13.0589 H   0  0  0  0  0  0  0  0  0  0  0  0
   16.5562  -21.9458  -15.8274 H   0  0  0  0  0  0  0  0  0  0  0  0
   15.0856  -23.3926  -17.6953 H   0  0  0  0  0  0  0  0  0  0  0  0
   15.7237  -21.6726  -16.9296 H   0  0  0  0  0  0  0  0  0  0  0  0
   15.4794  -23.8182  -16.1927 H   0  0  0  0  0  0  0  0  0  0  0  0
   14.4439  -24.7649  -15.3934 H   0  0  0  0  0  0  0  0  0  0  0  0
   15.0121  -23.9845  -15.6029 H   0  0  0  0  0  0  0  0  0  0  0  0
   14.0578  -25.4490  -14.6042 H   0  0  0  0  0  0  0  0  0  0  0  0
   13.5348  -26.1878  -14.3349 H   0  0  0  0  0  0  0  0  0  0  0  0
   14.5783  -25.4893  -11.6102 H   0  0  0  0  0  0  0  0  0  0  0  0
   12.5023  -28.1174  -11.7931 H   0  0  0  0  0  0  0  0  0  0  0  0
   13.7875  -26.6181  -11.0181 H   0  0  0  0  0  0  0  0  0  0  0  0
   12.7714  -27.3379  -13.7475 H   0  0  0  0  0  0  0  0  0  0  0  0
   15.3636  -24.7966  -10.2871 H   0  0  0  0  0  0  0  0  0  0  0  0
   15.4348  -24.2858   -9.2207 H   0  0  0  0  0  0  0  0  0  0  0  0
   17.6244  -22.5535  -10.3029 H   0  0  0  0  0  0  0  0  0  0  0  0
   16.2485  -24.2296   -7.8955 H   0  0  0  0  0  0  0  0  0  0  0  0
   17.8586  -21.9152   -8.9041 H   0  0  0  0  0  0  0  0  0  0  0  0
   17.2598  -22.4294   -9.9888 H   0  0  0  0  0  0  0  0  0  0  0  0
   18.7033  -20.4913  -10.3341 H   0  0  0  0  0  0  0  0  0  0  0  0
   17.7163  -21.9692   -9.4435 H   0  0  0  0  0  0  0  0  0  0  0  0
   18.0759  -20.8609  -12.1837 H   0  0  0  0  0  0  0  0  0  0  0  0
   18.1563  -20.8311  -11.8629 H   0  0  0  0  0  0  0  0  0  0  0  0
   18.8307  -19.5039  -13.7976 H   0  0  0  0  0  0  0  0  0  0  0  0
   18.4331  -20.1889  -11.8296 H   0  0  0  0  0  0  0  0  0  0  0  0
   17.8734  -20.8086  -14.6878 H   0  0  0  0  0  0  0  0  0  0  0  0
  1  2  1  0
  2  3  1  0
  3  4  1  0
  4  5  1  0
  4  6  1  0
  6  7  1  0
  6  8  1  0
  8  9  1  0
  9 10  1  0
 10 11  1  0
 11 12  1  0
 12 13  1  0
 13 14  1  0
 13 15  1  0
 15 16  1  0
 16 17  1  0
 17 18  1  0
 16 19  1  0
 19 20  1  0
 20 21  1  0
 21 22  1  0
 22 23  1  0
 20 24  1  0
 24 25  1  0
 24 26  1  0
 26 27  1  0
 11  9  1  0
 26 12  1  0
 12 10  1  0
  1 28  1  0
  1 29  1  0
  1 30  1  0
  2 31  1  0
  2 32  1  0
  3 33  1  0
  3 34  1  0
  4 35  1  0
  5 36  1  0
  5 37  1  0
  6 38  1  0
  7 39  1  0
  8 40  1  0
  8 41  1  0
  9 42  1  0
 10 43  1  0
 11 44  1  0
 13 45  1  0
 14 46  1  0
 14 47  1  0
 14 48  1  0
 15 49  1  0
 15 50  1  0
 16 51  1  0
 17 52  1  0
 17 53  1  0
 18 54  1  0
 18 55  1  0
 18 56  1  0
 20 57  1  0
 21 58  1  0
 21 59  1  0
 22 60  1  0
 22 61  1  0
 24 62  1  0
 25 63  1  0
 25 64  1  0
 25 65  1  0
 26 66  1  0
 27 67  1  0
 27 68  1  0
 27 69  1  0
M  END
