
     RDKit          2D

105110  0  0  0  0  0  0  0  0999 V2000
   -5.7729   28.5115    7.7175 C   0  0  0  0  0  0  0  0  0  0  0  0
   -4.6661   27.5415    8.0073 C   0  0  0  0  0  0  0  0  0  0  0  0
   -3.6221   28.0937    7.0826 O   0  0  0  0  0  0  0  0  0  0  0  0
   -4.8764   26.4393    9.0027 C   0  0  0  0  0  0  0  0  0  0  0  0
   -5.0866   25.3370    9.9982 C   0  0  0  0  0  0  0  0  0  0  0  0
   -5.2969   24.2348   10.9937 C   0  0  0  0  0  0  0  0  0  0  0  0
   -5.5071   23.1326   11.9891 N   0  0  0  0  0  0  0  0  0  0  0  0
   -3.4768   25.9558    8.7631 C   0  0  0  0  0  0  0  0  0  0  0  0
   -2.0772   25.4725    8.5235 N   0  0  0  0  0  0  0  0  0  0  0  0
   -1.2118   26.1549    7.5060 S   0  0  0  0  0  4  0  0  0  0  0  0
   -0.3465   26.8375    6.4884 Cl  0  0  0  0  0  0  0  0  0  0  0  0
   -2.3279   27.1081    7.1961 C   0  0  0  0  0  0  0  0  0  0  0  0
   -3.1939   26.4242    8.2122 O   0  0  0  0  0  0  0  0  0  0  0  0
   -4.3100   27.3773    7.9024 C   0  0  0  0  0  0  0  0  0  0  0  0
   -3.4440   28.0612    6.8863 C   0  0  0  0  0  0  0  0  0  0  0  0
   -2.5780   28.7450    5.8703 C   0  0  0  0  0  0  0  0  0  0  0  0
   -1.7119   29.4288    4.8542 C   0  0  0  0  0  0  0  0  0  0  0  0
   -0.8459   30.1127    3.8381 C   0  0  0  0  0  0  0  0  0  0  0  0
    0.0200   30.7965    2.8221 C   0  0  0  0  0  0  0  0  0  0  0  0
    1.2706   29.9785    2.9529 C   0  0  0  0  0  0  0  0  0  0  0  0
    2.5211   29.1606    3.0837 C   0  0  0  0  0  0  0  0  0  0  0  0
    3.7716   28.3426    3.2146 C   0  0  0  0  0  0  0  0  0  0  0  0
    5.0222   27.5246    3.3454 C   0  0  0  0  0  0  0  0  0  0  0  0
    6.4227   27.0428    3.1075 C   0  0  0  0  0  0  0  0  0  0  0  0
    5.8882   28.2085    2.3293 C   0  0  0  0  0  0  0  0  0  0  0  0
    0.4518   31.7644    1.7606 C   0  0  0  0  0  0  0  0  0  0  0  0
   -0.9297   31.8520    2.3384 C   0  0  0  0  0  0  0  0  0  0  0  0
   -1.4641   33.0176    1.5602 C   0  0  0  0  0  0  0  0  0  0  0  0
   -0.0958   25.2019    7.8158 C   0  0  0  0  0  0  0  0  0  0  0  0
    0.6568   24.0724    8.4545 O   0  0  0  0  0  0  0  0  0  0  0  0
   -0.7547   24.3631    8.8705 C   0  0  0  0  0  0  0  0  0  0  0  0
   -0.9466   23.2946    9.9055 C   0  0  0  0  0  0  0  0  0  0  0  0
   -1.1384   22.2260   10.9406 C   0  0  0  0  0  0  0  0  0  0  0  0
   -2.5386   22.7082   11.1788 O   0  0  0  0  0  0  0  0  0  0  0  0
   -1.3303   21.1575   11.9757 C   0  0  0  0  0  0  0  0  0  0  0  0
   -1.5221   20.0889   13.0108 C   0  0  0  0  0  0  0  0  0  0  0  0
   -0.1106   19.7982   12.5947 O   0  0  0  0  0  0  0  0  0  0  0  0
    0.6420   18.6687   13.2334 C   0  0  0  0  0  0  0  0  0  0  0  0
   -0.0170   17.8300   14.2881 C   0  0  0  0  0  0  0  0  0  0  0  0
   -1.4284   18.1208   14.7041 C   0  0  0  0  0  0  0  0  0  0  0  0
   -2.6238   17.8044   15.5533 C   0  0  0  0  0  0  0  0  0  0  0  0
   -3.3764   18.9339   14.9146 C   0  0  0  0  0  0  0  0  0  0  0  0
   -2.1810   19.2503   14.0654 C   0  0  0  0  0  0  0  0  0  0  0  0
   -3.2173   20.2594   13.6683 C   0  0  0  0  0  0  0  0  0  0  0  0
   -6.8797   29.4816    7.4276 H   0  0  0  0  0  0  0  0  0  0  0  0
   -5.0315   29.3393    6.7100 H   0  0  0  0  0  0  0  0  0  0  0  0
   -6.6559   27.7967    8.6969 H   0  0  0  0  0  0  0  0  0  0  0  0
   -6.2759   26.9227    9.2423 H   0  0  0  0  0  0  0  0  0  0  0  0
   -6.4863   25.8204   10.2377 H   0  0  0  0  0  0  0  0  0  0  0  0
   -3.7230   24.7229    9.8818 H   0  0  0  0  0  0  0  0  0  0  0  0
   -3.8802   23.8928   10.6387 H   0  0  0  0  0  0  0  0  0  0  0  0
   -6.6984   24.7148   11.2290 H   0  0  0  0  0  0  0  0  0  0  0  0
   -6.0430   21.8064   11.5375 H   0  0  0  0  0  0  0  0  0  0  0  0
   -5.1814   23.3565   13.4360 H   0  0  0  0  0  0  0  0  0  0  0  0
   -3.4582   27.0731    7.7623 H   0  0  0  0  0  0  0  0  0  0  0  0
   -3.4954   24.8387    9.7639 H   0  0  0  0  0  0  0  0  0  0  0  0
   -1.5429   24.3065    9.3014 H   0  0  0  0  0  0  0  0  0  0  0  0
   -1.3323   27.6706    6.2254 H   0  0  0  0  0  0  0  0  0  0  0  0
   -5.1834   28.4676    7.3559 H   0  0  0  0  0  0  0  0  0  0  0  0
   -5.4203   26.9445    8.8133 H   0  0  0  0  0  0  0  0  0  0  0  0
   -4.4462   29.0905    6.4550 H   0  0  0  0  0  0  0  0  0  0  0  0
   -3.6954   29.6956    5.5576 H   0  0  0  0  0  0  0  0  0  0  0  0
   -1.3632   27.8849    6.0568 H   0  0  0  0  0  0  0  0  0  0  0  0
   -2.5198   30.6831    5.0099 H   0  0  0  0  0  0  0  0  0  0  0  0
   -0.9041   28.1745    4.6985 H   0  0  0  0  0  0  0  0  0  0  0  0
   -2.0626   30.9691    3.6475 H   0  0  0  0  0  0  0  0  0  0  0  0
    0.1596   29.0895    4.2765 H   0  0  0  0  0  0  0  0  0  0  0  0
    2.0854   30.7269    1.9399 H   0  0  0  0  0  0  0  0  0  0  0  0
    0.7607   29.0308    3.9977 H   0  0  0  0  0  0  0  0  0  0  0  0
    3.1799   29.9989    2.0286 H   0  0  0  0  0  0  0  0  0  0  0  0
    1.8624   28.3222    4.1388 H   0  0  0  0  0  0  0  0  0  0  0  0
    4.2729   29.2742    2.1510 H   0  0  0  0  0  0  0  0  0  0  0  0
    3.1131   27.5045    4.2699 H   0  0  0  0  0  0  0  0  0  0  0  0
    4.5905   26.5567    4.4069 H   0  0  0  0  0  0  0  0  0  0  0  0
    6.4773   25.9076    4.0864 H   0  0  0  0  0  0  0  0  0  0  0  0
    7.8042   26.9552    2.5297 H   0  0  0  0  0  0  0  0  0  0  0  0
    7.0841   28.5257    1.4812 H   0  0  0  0  0  0  0  0  0  0  0  0
    5.0731   29.3180    1.7338 H   0  0  0  0  0  0  0  0  0  0  0  0
    1.8652   31.4163    1.3983 H   0  0  0  0  0  0  0  0  0  0  0  0
    0.5698   32.8559    0.7385 H   0  0  0  0  0  0  0  0  0  0  0  0
   -2.2085   31.6745    3.1021 H   0  0  0  0  0  0  0  0  0  0  0  0
   -1.9985   34.1833    0.7819 H   0  0  0  0  0  0  0  0  0  0  0  0
   -2.7799   32.8873    2.2685 H   0  0  0  0  0  0  0  0  0  0  0  0
   -0.2233   33.2891    0.7622 H   0  0  0  0  0  0  0  0  0  0  0  0
    0.9508   25.7095    6.8687 H   0  0  0  0  0  0  0  0  0  0  0  0
   -2.1642   24.7710    9.1820 H   0  0  0  0  0  0  0  0  0  0  0  0
    0.4523   22.8098    9.6643 H   0  0  0  0  0  0  0  0  0  0  0  0
   -2.3116   23.9060   10.0188 H   0  0  0  0  0  0  0  0  0  0  0  0
    0.2619   21.7439   10.7023 H   0  0  0  0  0  0  0  0  0  0  0  0
   -3.0725   23.8751   10.4020 H   0  0  0  0  0  0  0  0  0  0  0  0
    0.1415   21.1736   12.2651 H   0  0  0  0  0  0  0  0  0  0  0  0
   -2.8020   21.1414   11.6863 H   0  0  0  0  0  0  0  0  0  0  0  0
   -2.8043   20.8639   12.9375 H   0  0  0  0  0  0  0  0  0  0  0  0
    1.7580   17.7156   13.5431 H   0  0  0  0  0  0  0  0  0  0  0  0
    1.6885   19.1763   12.2863 H   0  0  0  0  0  0  0  0  0  0  0  0
   -0.0367   16.7104   15.2862 H   0  0  0  0  0  0  0  0  0  0  0  0
    1.3279   17.1681   14.2316 H   0  0  0  0  0  0  0  0  0  0  0  0
   -1.1785   16.9551   15.6145 H   0  0  0  0  0  0  0  0  0  0  0  0
   -3.8192   17.4881   16.4024 H   0  0  0  0  0  0  0  0  0  0  0  0
   -1.8712   16.6750   16.1920 H   0  0  0  0  0  0  0  0  0  0  0  0
   -4.2691   20.0164   14.3842 H   0  0  0  0  0  0  0  0  0  0  0  0
   -4.5717   18.6175   15.7638 H   0  0  0  0  0  0  0  0  0  0  0  0
   -4.2537   21.2685   13.2711 H   0  0  0  0  0  0  0  0  0  0  0  0
   -4.2975   19.7868   14.5957 H   0  0  0  0  0  0  0  0  0  0  0  0
   -2.3899   20.9779   12.6442 H   0  0  0  0  0  0  0  0  0  0  0  0
  1  2  1  0
  2  3  2  0
  2  4  1  0
  4  5  1  0
  5  6  1  0
  6  7  1  0
  4  8  1  0
  8  9  1  0
  9 10  1  0
 10 11  1  0
 10 12  1  0
 12 13  1  0
 13 14  1  0
 14 15  1  0
 15 16  1  0
 16 17  1  0
 17 18  1  0
 18 19  1  0
 19 20  1  0
 20 21  1  0
 21 22  1  0
 22 23  1  0
 23 24  1  0
 24 25  1  0
 19 26  1  0
 26 27  1  0
 27 28  1  0
 10 29  1  0
 29 30  1  0
 30 31  1  0
 31 32  1  0
 32 33  1  0
 33 34  1  0
 33 35  1  0
 35 36  1  0
 36 37  1  0
 37 38  1  0
 38 39  1  0
 39 40  1  0
 40 41  1  0
 41 42  1  0
 42 43  1  0
 43 44  1  0
 15 12  1  0
 27 19  1  0
 31 29  1  0
 43 36  1  0
 25 23  1  0
 43 40  1  0
  1 45  1  0
  1 46  1  0
  1 47  1  0
  4 48  1  0
  5 49  1  0
  5 50  1  0
  6 51  1  0
  6 52  1  0
  7 53  1  0
  7 54  1  0
  8 55  1  0
  8 56  1  0
  9 57  1  0
 12 58  1  0
 14 59  1  0
 14 60  1  0
 15 61  1  0
 16 62  1  0
 16 63  1  0
 17 64  1  0
 17 65  1  0
 18 66  1  0
 18 67  1  0
 20 68  1  0
 20 69  1  0
 21 70  1  0
 21 71  1  0
 22 72  1  0
 22 73  1  0
 23 74  1  0
 24 75  1  0
 24 76  1  0
 25 77  1  0
 25 78  1  0
 26 79  1  0
 26 80  1  0
 27 81  1  0
 28 82  1  0
 28 83  1  0
 28 84  1  0
 29 85  1  0
 31 86  1  0
 32 87  1  0
 32 88  1  0
 33 89  1  0
 34 90  1  0
 35 91  1  0
 35 92  1  0
 36 93  1  0
 38 94  1  0
 38 95  1  0
 39 96  1  0
 39 97  1  0
 40 98  1  0
 41 99  1  0
 41100  1  0
 42101  1  0
 42102  1  0
 44103  1  0
 44104  1  0
 44105  1  0
M  END
