
     RDKit          2D

 30 33  0  0  0  0  0  0  0  0999 V2000
   -1.1051   22.4526    4.9347 C   0  0  0  0  0  0  0  0  0  0  0  0
   -0.2267   23.6576    4.7729 C   0  0  0  0  0  0  0  0  0  0  0  0
   -1.2887   23.3617    3.7558 C   0  0  0  0  0  0  0  0  0  0  0  0
   -2.4238   22.6661    3.0647 C   0  0  0  0  0  0  0  0  0  0  0  0
   -2.2132   23.8167    2.1258 C   0  0  0  0  0  0  0  0  0  0  0  0
   -3.0739   23.9561    0.9053 C   0  0  0  0  0  0  0  0  0  0  0  0
   -4.1453   22.9448    0.6236 C   0  0  0  0  0  0  0  0  0  0  0  0
   -4.3559   21.7941    1.5625 C   0  0  0  0  0  0  0  0  0  0  0  0
   -3.4952   21.6548    2.7830 C   0  0  0  0  0  0  0  0  0  0  0  0
   -4.5206   23.6896   -0.6231 C   0  0  0  0  0  0  0  0  0  0  0  0
   -5.6361   23.1862   -1.4905 C   0  0  0  0  0  0  0  0  0  0  0  0
   -5.2608   22.4414   -0.2437 C   0  0  0  0  0  0  0  0  0  0  0  0
   -0.5495   21.8947    6.2114 H   0  0  0  0  0  0  0  0  0  0  0  0
   -1.9294   21.5660    4.8314 H   0  0  0  0  0  0  0  0  0  0  0  0
    0.3528   24.9111    4.1874 H   0  0  0  0  0  0  0  0  0  0  0  0
    0.6340   23.5183    5.9935 H   0  0  0  0  0  0  0  0  0  0  0  0
   -1.1053   24.0013    3.3167 H   0  0  0  0  0  0  0  0  0  0  0  0
   -2.3869   21.8496    3.9637 H   0  0  0  0  0  0  0  0  0  0  0  0
   -1.6336   25.0702    1.5402 H   0  0  0  0  0  0  0  0  0  0  0  0
   -1.6270   24.0520    2.6122 H   0  0  0  0  0  0  0  0  0  0  0  0
   -3.5047   24.6470   -0.3546 H   0  0  0  0  0  0  0  0  0  0  0  0
   -2.1955   25.1612    0.7435 H   0  0  0  0  0  0  0  0  0  0  0  0
   -4.9354   20.5407    2.1481 H   0  0  0  0  0  0  0  0  0  0  0  0
   -5.4589   21.3515    0.6473 H   0  0  0  0  0  0  0  0  0  0  0  0
   -2.9396   21.0968    4.0598 H   0  0  0  0  0  0  0  0  0  0  0  0
   -4.3736   20.4497    2.9448 H   0  0  0  0  0  0  0  0  0  0  0  0
   -3.8908   24.9455   -1.1486 H   0  0  0  0  0  0  0  0  0  0  0  0
   -5.6223   24.2320   -2.5657 H   0  0  0  0  0  0  0  0  0  0  0  0
   -6.7564   22.3195   -1.9843 H   0  0  0  0  0  0  0  0  0  0  0  0
   -6.1004   21.2194   -0.0159 H   0  0  0  0  0  0  0  0  0  0  0  0
  1  2  1  0
  2  3  1  0
  3  4  1  0
  4  5  1  0
  5  6  1  0
  6  7  1  0
  7  8  1  0
  8  9  1  0
  7 10  1  0
 10 11  1  0
 11 12  1  0
  3  1  1  0
  9  4  1  0
 12 10  1  0
 12  7  1  0
  1 13  1  0
  1 14  1  0
  2 15  1  0
  2 16  1  0
  3 17  1  0
  4 18  1  0
  5 19  1  0
  5 20  1  0
  6 21  1  0
  6 22  1  0
  8 23  1  0
  8 24  1  0
  9 25  1  0
  9 26  1  0
 10 27  1  0
 11 28  1  0
 11 29  1  0
 12 30  1  0
M  END
