
     RDKit          2D

 36 38  0  0  0  0  0  0  0  0999 V2000
    0.4952   25.3717    0.7681 C   0  0  0  0  0  0  0  0  0  0  0  0
    0.3312   24.8885    2.1787 C   0  0  0  0  0  0  0  0  0  0  0  0
   -1.0072   24.9754    2.8504 C   0  0  0  0  0  0  0  0  0  0  0  0
   -0.6652   24.3916    4.1891 C   0  0  0  0  0  0  0  0  0  0  0  0
   -0.8291   23.9084    5.5996 C   0  0  0  0  0  0  0  0  0  0  0  0
   -0.9932   23.4251    7.0102 C   0  0  0  0  0  0  0  0  0  0  0  0
   -1.1572   22.9419    8.4207 C   0  0  0  0  0  0  0  0  0  0  0  0
    0.4585   23.0496    7.0503 C   0  0  0  0  0  0  0  0  0  0  0  0
    1.9102   22.6741    7.0905 C   0  0  0  0  0  0  0  0  0  0  0  0
   -2.0653   24.8491    3.9061 C   0  0  0  0  0  0  0  0  0  0  0  0
   -3.2397   25.4193    3.1673 C   0  0  0  0  0  0  0  0  0  0  0  0
   -3.0248   26.4472    2.0963 C   0  0  0  0  0  0  0  0  0  0  0  0
   -4.4140   25.9895    2.4285 C   0  0  0  0  0  0  0  0  0  0  0  0
   -4.6290   24.9614    3.4996 C   0  0  0  0  0  0  0  0  0  0  0  0
    1.8335   25.2848    0.0964 H   0  0  0  0  0  0  0  0  0  0  0  0
   -0.6792   25.9419    0.0294 H   0  0  0  0  0  0  0  0  0  0  0  0
    1.5055   24.3183    2.9175 H   0  0  0  0  0  0  0  0  0  0  0  0
   -1.4353   25.3769    2.0605 H   0  0  0  0  0  0  0  0  0  0  0  0
    0.7920   24.1019    3.9823 H   0  0  0  0  0  0  0  0  0  0  0  0
    0.0328   23.7205    5.5207 H   0  0  0  0  0  0  0  0  0  0  0  0
   -2.1429   24.1946    5.7200 H   0  0  0  0  0  0  0  0  0  0  0  0
   -2.4448   23.8006    6.9701 H   0  0  0  0  0  0  0  0  0  0  0  0
   -1.3211   22.4587    9.8312 H   0  0  0  0  0  0  0  0  0  0  0  0
    0.0687   22.0905    8.2715 H   0  0  0  0  0  0  0  0  0  0  0  0
   -1.8875   23.4061    8.6097 H   0  0  0  0  0  0  0  0  0  0  0  0
    0.6576   23.2993    6.2241 H   0  0  0  0  0  0  0  0  0  0  0  0
    0.4685   22.7458    7.8822 H   0  0  0  0  0  0  0  0  0  0  0  0
    3.3619   22.2985    7.1306 H   0  0  0  0  0  0  0  0  0  0  0  0
    2.0741   23.1569    5.6797 H   0  0  0  0  0  0  0  0  0  0  0  0
    1.7463   22.1913    8.5011 H   0  0  0  0  0  0  0  0  0  0  0  0
   -2.7897   24.6166    5.0214 H   0  0  0  0  0  0  0  0  0  0  0  0
   -2.0549   26.6037    2.0381 H   0  0  0  0  0  0  0  0  0  0  0  0
   -3.3291   27.4354    1.0096 H   0  0  0  0  0  0  0  0  0  0  0  0
   -5.5884   26.5596    1.6897 H   0  0  0  0  0  0  0  0  0  0  0  0
   -6.1239   24.8469    3.4543 H   0  0  0  0  0  0  0  0  0  0  0  0
   -4.3246   23.9733    4.5862 H   0  0  0  0  0  0  0  0  0  0  0  0
  1  2  2  3
  2  3  1  0
  3  4  1  0
  4  5  1  0
  5  6  1  0
  6  7  1  0
  6  8  1  0
  8  9  1  0
  4 10  1  0
 10 11  1  0
 11 12  1  0
 12 13  1  0
 13 14  1  0
 10  3  1  0
 13 11  1  0
 14 11  1  0
  1 15  1  0
  1 16  1  0
  2 17  1  0
  3 18  1  0
  4 19  1  0
  5 20  1  0
  5 21  1  0
  6 22  1  0
  7 23  1  0
  7 24  1  0
  7 25  1  0
  8 26  1  0
  8 27  1  0
  9 28  1  0
  9 29  1  0
  9 30  1  0
 10 31  1  0
 12 32  1  0
 12 33  1  0
 13 34  1  0
 14 35  1  0
 14 36  1  0
M  END
