
     RDKit          2D

 68 70  0  0  0  0  0  0  0  0999 V2000
    0.4982   25.1514    7.0926 C   0  0  0  0  0  0  0  0  0  0  0  0
   -0.6417   25.9219    7.6899 C   0  0  0  0  0  0  0  0  0  0  0  0
   -1.2725   27.0448    6.9211 C   0  0  0  0  0  0  0  0  0  0  0  0
   -0.2597   26.6874    5.8739 C   0  0  0  0  0  0  0  0  0  0  0  0
    0.7530   26.3299    4.8268 C   0  0  0  0  0  0  0  0  0  0  0  0
    1.7658   25.9725    3.7797 C   0  0  0  0  0  0  0  0  0  0  0  0
   -0.9345   27.6129    4.9054 O   0  0  0  0  0  0  0  0  0  0  0  0
   -0.3947   27.7662    3.5143 C   0  0  0  0  0  0  0  0  0  0  0  0
    0.6960   26.7859    3.8295 C   0  0  0  0  0  0  0  0  0  0  0  0
   -1.4854   28.7465    3.1991 C   0  0  0  0  0  0  0  0  0  0  0  0
   -2.3202   29.7272    2.4301 C   0  0  0  0  0  0  0  0  0  0  0  0
   -3.3470   30.0666    3.4696 F   0  0  0  0  0  0  0  0  0  0  0  0
   -1.1273   29.0882    1.7831 C   0  0  0  0  0  0  0  0  0  0  0  0
   -1.1911   29.7292    0.4285 O   0  0  0  0  0  0  0  0  0  0  0  0
   -0.1643   29.3899   -0.6109 F   0  0  0  0  0  0  0  0  0  0  0  0
   -1.6916   28.0930    5.9333 C   0  0  0  0  0  0  0  0  0  0  0  0
   -2.8315   28.8636    6.5307 C   0  0  0  0  0  0  0  0  0  0  0  0
   -3.9319   29.4401    7.3713 C   0  0  0  0  0  0  0  0  0  0  0  0
   -3.1170   28.2916    7.8877 C   0  0  0  0  0  0  0  0  0  0  0  0
   -2.1534   27.1676    8.1289 C   0  0  0  0  0  0  0  0  0  0  0  0
   -2.8640   27.0502    9.4447 C   0  0  0  0  0  0  0  0  0  0  0  0
   -3.5745   26.9327   10.7606 C   0  0  0  0  0  0  0  0  0  0  0  0
   -4.2850   26.8153   12.0764 C   0  0  0  0  0  0  0  0  0  0  0  0
   -2.6801   25.7905   11.1417 C   0  0  0  0  0  0  0  0  0  0  0  0
   -1.7857   24.6482   11.5227 C   0  0  0  0  0  0  0  0  0  0  0  0
   -0.8913   23.5059   11.9038 C   0  0  0  0  0  0  0  0  0  0  0  0
    0.0032   22.3636   12.2848 C   0  0  0  0  0  0  0  0  0  0  0  0
    0.8976   21.2213   12.6659 C   0  0  0  0  0  0  0  0  0  0  0  0
    1.1290   24.0285    7.8614 H   0  0  0  0  0  0  0  0  0  0  0  0
    0.8702   25.2792    6.2989 H   0  0  0  0  0  0  0  0  0  0  0  0
   -1.0224   25.4389    9.0581 H   0  0  0  0  0  0  0  0  0  0  0  0
    0.3305   26.0414    6.3243 H   0  0  0  0  0  0  0  0  0  0  0  0
    1.2256   25.3685    5.4000 H   0  0  0  0  0  0  0  0  0  0  0  0
    0.7883   26.7813    4.1707 H   0  0  0  0  0  0  0  0  0  0  0  0
    2.7786   25.6150    2.7325 H   0  0  0  0  0  0  0  0  0  0  0  0
    1.1513   26.7540    2.6566 H   0  0  0  0  0  0  0  0  0  0  0  0
    2.5094   25.1411    4.7826 H   0  0  0  0  0  0  0  0  0  0  0  0
    0.2740   27.7987    2.1720 H   0  0  0  0  0  0  0  0  0  0  0  0
    1.8888   25.8768    3.8009 H   0  0  0  0  0  0  0  0  0  0  0  0
    1.1149   27.0782    2.4192 H   0  0  0  0  0  0  0  0  0  0  0  0
    0.7172   26.1718    5.1979 H   0  0  0  0  0  0  0  0  0  0  0  0
   -2.3361   28.8666    4.4287 H   0  0  0  0  0  0  0  0  0  0  0  0
   -2.7983   30.5902    1.3002 H   0  0  0  0  0  0  0  0  0  0  0  0
    0.0970   28.2938    1.4364 H   0  0  0  0  0  0  0  0  0  0  0  0
   -0.6979   27.7739    4.8559 H   0  0  0  0  0  0  0  0  0  0  0  0
   -2.0165   29.0963    4.8666 H   0  0  0  0  0  0  0  0  0  0  0  0
   -3.0206   29.7912    5.3672 H   0  0  0  0  0  0  0  0  0  0  0  0
   -4.4241   30.5185    6.4521 H   0  0  0  0  0  0  0  0  0  0  0  0
   -4.8614   29.6422    8.5312 H   0  0  0  0  0  0  0  0  0  0  0  0
   -3.9312   28.3143    9.1472 H   0  0  0  0  0  0  0  0  0  0  0  0
   -1.4421   26.0279    8.7961 H   0  0  0  0  0  0  0  0  0  0  0  0
   -1.8900   25.9302    9.6623 H   0  0  0  0  0  0  0  0  0  0  0  0
   -3.8379   28.1700    9.2272 H   0  0  0  0  0  0  0  0  0  0  0  0
   -4.4689   28.0750   10.3795 H   0  0  0  0  0  0  0  0  0  0  0  0
   -4.9955   26.6979   13.3922 H   0  0  0  0  0  0  0  0  0  0  0  0
   -5.3672   27.7239   11.5731 H   0  0  0  0  0  0  0  0  0  0  0  0
   -3.2975   25.8993   12.7364 H   0  0  0  0  0  0  0  0  0  0  0  0
   -3.2284   25.5816   12.5221 H   0  0  0  0  0  0  0  0  0  0  0  0
   -1.9137   25.7209    9.8540 H   0  0  0  0  0  0  0  0  0  0  0  0
   -2.4556   24.5706   12.8625 H   0  0  0  0  0  0  0  0  0  0  0  0
   -1.1157   24.7258   10.1829 H   0  0  0  0  0  0  0  0  0  0  0  0
   -0.2623   23.5443   10.5426 H   0  0  0  0  0  0  0  0  0  0  0  0
   -1.5203   23.4675   13.2650 H   0  0  0  0  0  0  0  0  0  0  0  0
   -0.6244   22.3265   13.6467 H   0  0  0  0  0  0  0  0  0  0  0  0
    0.6307   22.4006   10.9229 H   0  0  0  0  0  0  0  0  0  0  0  0
    1.7920   20.0790   13.0469 H   0  0  0  0  0  0  0  0  0  0  0  0
    0.2311   21.1471   14.0076 H   0  0  0  0  0  0  0  0  0  0  0  0
    1.5641   21.2955   11.3241 H   0  0  0  0  0  0  0  0  0  0  0  0
  1  2  2  3
  2  3  1  0
  3  4  1  0
  4  5  1  0
  5  6  1  0
  4  7  1  0
  7  8  1  0
  8  9  1  0
  8 10  1  0
 10 11  1  0
 11 12  1  0
 11 13  1  0
 13 14  1  0
 14 15  1  0
  3 16  1  0
 16 17  1  0
 17 18  1  0
 18 19  1  0
 19 20  1  0
 20 21  1  0
 21 22  1  0
 22 23  1  0
 22 24  1  0
 24 25  1  0
 25 26  1  0
 26 27  1  0
 27 28  1  0
 20  3  1  0
 13 10  1  0
 19 17  1  0
  1 29  1  0
  1 30  1  0
  2 31  1  0
  4 32  1  0
  5 33  1  0
  5 34  1  0
  6 35  1  0
  6 36  1  0
  6 37  1  0
  8 38  1  0
  9 39  1  0
  9 40  1  0
  9 41  1  0
 10 42  1  0
 11 43  1  0
 13 44  1  0
 16 45  1  0
 16 46  1  0
 17 47  1  0
 18 48  1  0
 18 49  1  0
 19 50  1  0
 20 51  1  0
 21 52  1  0
 21 53  1  0
 22 54  1  0
 23 55  1  0
 23 56  1  0
 23 57  1  0
 24 58  1  0
 24 59  1  0
 25 60  1  0
 25 61  1  0
 26 62  1  0
 26 63  1  0
 27 64  1  0
 27 65  1  0
 28 66  1  0
 28 67  1  0
 28 68  1  0
M  END
