
     RDKit          2D

 34 41  0  0  0  0  0  0  0  0999 V2000
   16.6625  -21.9256  -16.4180 C   0  0  0  0  0  0  0  0  0  0  0  0
   17.4166  -21.5081  -15.1904 C   0  0  0  0  0  0  0  0  0  0  0  0
   16.4680  -21.9807  -14.1289 C   0  0  0  0  0  0  0  0  0  0  0  0
   17.7502  -21.3052  -13.7422 C   0  0  0  0  0  0  0  0  0  0  0  0
   18.6832  -20.7979  -12.6828 C   0  0  0  0  0  0  0  0  0  0  0  0
   17.7346  -21.2705  -11.6212 C   0  0  0  0  0  0  0  0  0  0  0  0
   16.8017  -21.7777  -12.6806 C   0  0  0  0  0  0  0  0  0  0  0  0
   15.6440  -22.3655  -11.9294 C   0  0  0  0  0  0  0  0  0  0  0  0
   14.9219  -22.5972  -13.2235 C   0  0  0  0  0  0  0  0  0  0  0  0
   13.7642  -23.1850  -12.4723 N   0  0  0  0  0  0  0  0  0  0  0  0
   14.4864  -22.9532  -11.1781 C   0  0  0  0  0  0  0  0  0  0  0  0
   13.5550  -23.4609  -10.1176 C   0  0  0  0  0  0  0  0  0  0  0  0
   13.9529  -23.3892   -8.6731 C   0  0  0  0  0  0  0  0  0  0  0  0
   15.2821  -22.8097   -8.2892 C   0  0  0  0  0  0  0  0  0  0  0  0
   14.8842  -22.8815   -9.7337 C   0  0  0  0  0  0  0  0  0  0  0  0
   14.5240  -22.6690  -14.6680 O   0  0  0  0  0  0  0  0  0  0  0  0
   15.8532  -22.0895  -14.2841 C   0  0  0  0  0  0  0  0  0  0  0  0
   16.0677  -21.8788  -15.7536 Cl  0  0  0  0  0  0  0  0  0  0  0  0
   15.9084  -22.3431  -17.6457 H   0  0  0  0  0  0  0  0  0  0  0  0
   17.7603  -21.3755  -17.2794 H   0  0  0  0  0  0  0  0  0  0  0  0
   15.5646  -22.4758  -15.5566 H   0  0  0  0  0  0  0  0  0  0  0  0
   18.6269  -20.8906  -15.8257 H   0  0  0  0  0  0  0  0  0  0  0  0
   15.3098  -22.5985  -14.8547 H   0  0  0  0  0  0  0  0  0  0  0  0
   19.6161  -20.2907  -11.6234 H   0  0  0  0  0  0  0  0  0  0  0  0
   19.6317  -20.3254  -13.7444 H   0  0  0  0  0  0  0  0  0  0  0  0
   16.9069  -21.6777  -10.4383 H   0  0  0  0  0  0  0  0  0  0  0  0
   18.6676  -20.7632  -10.5618 H   0  0  0  0  0  0  0  0  0  0  0  0
   16.2196  -22.2071  -10.5532 H   0  0  0  0  0  0  0  0  0  0  0  0
   12.4350  -23.7645  -12.8562 H   0  0  0  0  0  0  0  0  0  0  0  0
   12.2258  -24.0404  -10.5015 H   0  0  0  0  0  0  0  0  0  0  0  0
   13.0215  -23.8969   -7.6125 H   0  0  0  0  0  0  0  0  0  0  0  0
   15.2096  -22.9570   -6.7982 H   0  0  0  0  0  0  0  0  0  0  0  0
   16.6364  -22.1791   -8.4231 H   0  0  0  0  0  0  0  0  0  0  0  0
   17.1430  -21.5395  -13.7512 H   0  0  0  0  0  0  0  0  0  0  0  0
  1  2  1  0
  2  3  1  0
  3  4  1  0
  4  5  1  0
  5  6  1  0
  6  7  1  0
  7  8  1  0
  8  9  1  0
  9 10  1  0
 10 11  1  0
 11 12  1  0
 12 13  1  0
 13 14  1  0
 14 15  1  0
  9 16  1  0
 16 17  1  0
 17 18  1  0
  4  2  1  0
 11  8  1  0
 15 12  1  0
  7  3  1  0
 17  9  1  0
  7  4  1  0
 15 11  1  0
 15 13  1  0
  1 19  1  0
  1 20  1  0
  1 21  1  0
  2 22  1  0
  3 23  1  0
  5 24  1  0
  5 25  1  0
  6 26  1  0
  6 27  1  0
  8 28  1  0
 10 29  1  0
 12 30  1  0
 13 31  1  0
 14 32  1  0
 14 33  1  0
 17 34  1  0
M  END
