
     RDKit          2D

 81 90  0  0  0  0  0  0  0  0999 V2000
   16.3428  -19.7142   -3.5980 N   0  0  0  0  0  0  0  0  0  0  0  0
   16.4954  -20.9079   -4.4935 C   0  0  0  0  0  0  0  0  0  0  0  0
   16.6479  -22.1016   -5.3889 C   0  0  0  0  0  0  0  0  0  0  0  0
   16.1065  -22.5756   -4.0728 C   0  0  0  0  0  0  0  0  0  0  0  0
   15.6594  -23.7873   -3.3101 C   0  0  0  0  0  0  0  0  0  0  0  0
   15.2305  -23.3426   -1.9433 C   0  0  0  0  0  0  0  0  0  0  0  0
   15.3025  -21.8916   -1.5697 O   0  0  0  0  0  0  0  0  0  0  0  0
   15.4774  -25.2740   -3.3922 C   0  0  0  0  0  0  0  0  0  0  0  0
   15.6299  -26.4676   -4.2876 C   0  0  0  0  0  0  0  0  0  0  0  0
   16.0588  -26.9124   -5.6545 C   0  0  0  0  0  0  0  0  0  0  0  0
   16.6002  -26.4384   -6.9706 C   0  0  0  0  0  0  0  0  0  0  0  0
   17.0473  -25.2266   -7.7332 C   0  0  0  0  0  0  0  0  0  0  0  0
   17.2293  -23.7400   -7.6512 C   0  0  0  0  0  0  0  0  0  0  0  0
   17.7490  -22.8537   -8.7441 C   0  0  0  0  0  0  0  0  0  0  0  0
   18.2687  -21.9674   -9.8370 C   0  0  0  0  0  0  0  0  0  0  0  0
   18.7884  -21.0811  -10.9299 C   0  0  0  0  0  0  0  0  0  0  0  0
   19.5786  -22.0803  -11.7220 C   0  0  0  0  0  0  0  0  0  0  0  0
   19.5198  -20.6488  -12.1660 C   0  0  0  0  0  0  0  0  0  0  0  0
   20.3100  -21.6480  -12.9581 C   0  0  0  0  0  0  0  0  0  0  0  0
   20.9726  -22.8916  -13.4721 C   0  0  0  0  0  0  0  0  0  0  0  0
   21.5523  -22.1108  -14.6142 C   0  0  0  0  0  0  0  0  0  0  0  0
   22.2150  -23.3545  -15.1281 C   0  0  0  0  0  0  0  0  0  0  0  0
   23.0350  -24.2563  -16.0024 C   0  0  0  0  0  0  0  0  0  0  0  0
   22.8982  -22.8021  -16.3439 C   0  0  0  0  0  0  0  0  0  0  0  0
   22.4729  -21.3665  -16.2522 C   0  0  0  0  0  0  0  0  0  0  0  0
   22.0475  -19.9311  -16.1604 C   0  0  0  0  0  0  0  0  0  0  0  0
   22.7308  -19.3787  -17.3761 C   0  0  0  0  0  0  0  0  0  0  0  0
   22.5940  -17.9245  -17.7176 C   0  0  0  0  0  0  0  0  0  0  0  0
   22.0416  -16.5643  -17.4102 C   0  0  0  0  0  0  0  0  0  0  0  0
   21.3583  -17.1166  -16.1944 C   0  0  0  0  0  0  0  0  0  0  0  0
   21.9107  -18.4769  -16.5019 C   0  0  0  0  0  0  0  0  0  0  0  0
   20.8896  -20.8671  -14.1002 C   0  0  0  0  0  0  0  0  0  0  0  0
   21.4693  -20.0862  -15.2422 O   0  0  0  0  0  0  0  0  0  0  0  0
   17.5965  -21.6600   -7.8487 C   0  0  0  0  0  0  0  0  0  0  0  0
   17.2045  -21.0694   -6.5267 C   0  0  0  0  0  0  0  0  0  0  0  0
   17.0768  -22.5463   -6.7558 C   0  0  0  0  0  0  0  0  0  0  0  0
   15.8165  -19.8849   -2.2038 H   0  0  0  0  0  0  0  0  0  0  0  0
   16.7166  -18.3498   -4.0968 H   0  0  0  0  0  0  0  0  0  0  0  0
   16.5367  -20.0047   -5.6904 H   0  0  0  0  0  0  0  0  0  0  0  0
   16.4637  -21.3069   -3.8041 H   0  0  0  0  0  0  0  0  0  0  0  0
   16.9394  -20.9803   -5.7553 H   0  0  0  0  0  0  0  0  0  0  0  0
   16.1348  -21.8109   -3.8491 H   0  0  0  0  0  0  0  0  0  0  0  0
   15.6405  -22.3071   -2.6726 H   0  0  0  0  0  0  0  0  0  0  0  0
   14.7296  -24.3488   -0.9500 H   0  0  0  0  0  0  0  0  0  0  0  0
   14.9359  -25.7480   -2.0761 H   0  0  0  0  0  0  0  0  0  0  0  0
   15.0885  -26.9417   -2.9715 H   0  0  0  0  0  0  0  0  0  0  0  0
   15.3870  -27.9451   -4.1971 H   0  0  0  0  0  0  0  0  0  0  0  0
   15.6522  -28.2202   -5.0424 H   0  0  0  0  0  0  0  0  0  0  0  0
   16.1468  -28.2053   -6.4101 H   0  0  0  0  0  0  0  0  0  0  0  0
   16.4817  -27.9120   -7.2240 H   0  0  0  0  0  0  0  0  0  0  0  0
   16.9855  -27.0528   -8.2836 H   0  0  0  0  0  0  0  0  0  0  0  0
   17.2621  -26.3034   -8.7553 H   0  0  0  0  0  0  0  0  0  0  0  0
   17.5887  -24.7526   -9.0494 H   0  0  0  0  0  0  0  0  0  0  0  0
   16.6922  -24.4286   -6.4317 H   0  0  0  0  0  0  0  0  0  0  0  0
   17.9016  -24.0474   -9.6396 H   0  0  0  0  0  0  0  0  0  0  0  0
   19.4861  -22.8349   -9.9616 H   0  0  0  0  0  0  0  0  0  0  0  0
   17.1238  -20.9984   -9.8465 H   0  0  0  0  0  0  0  0  0  0  0  0
   18.1788  -19.7742  -10.5174 H   0  0  0  0  0  0  0  0  0  0  0  0
   19.6373  -23.5119  -11.2779 H   0  0  0  0  0  0  0  0  0  0  0  0
   19.4612  -19.2173  -12.6102 H   0  0  0  0  0  0  0  0  0  0  0  0
   21.5597  -24.2212  -13.8431 H   0  0  0  0  0  0  0  0  0  0  0  0
   20.3930  -23.6725  -12.3301 H   0  0  0  0  0  0  0  0  0  0  0  0
   21.9544  -21.0521  -15.5979 H   0  0  0  0  0  0  0  0  0  0  0  0
   21.8570  -24.4642  -14.1846 H   0  0  0  0  0  0  0  0  0  0  0  0
   22.8667  -25.5537  -15.2687 H   0  0  0  0  0  0  0  0  0  0  0  0
   23.9135  -24.7075  -17.1314 H   0  0  0  0  0  0  0  0  0  0  0  0
   23.7293  -22.7482  -17.5916 H   0  0  0  0  0  0  0  0  0  0  0  0
   21.6268  -21.3171  -15.0145 H   0  0  0  0  0  0  0  0  0  0  0  0
   23.2387  -21.0596  -17.5048 H   0  0  0  0  0  0  0  0  0  0  0  0
   21.1721  -19.6283  -14.9806 H   0  0  0  0  0  0  0  0  0  0  0  0
   23.5508  -20.2805  -18.2503 H   0  0  0  0  0  0  0  0  0  0  0  0
   23.3969  -17.7430  -18.9716 H   0  0  0  0  0  0  0  0  0  0  0  0
   21.4892  -15.2041  -17.1026 H   0  0  0  0  0  0  0  0  0  0  0  0
   22.7248  -16.0120  -18.6258 H   0  0  0  0  0  0  0  0  0  0  0  0
   20.6750  -17.6690  -14.9786 H   0  0  0  0  0  0  0  0  0  0  0  0
   20.8059  -15.7564  -15.8868 H   0  0  0  0  0  0  0  0  0  0  0  0
   20.2270  -19.6235  -13.5862 H   0  0  0  0  0  0  0  0  0  0  0  0
   21.0099  -18.6818  -15.5003 H   0  0  0  0  0  0  0  0  0  0  0  0
   18.0212  -20.3911   -8.5265 H   0  0  0  0  0  0  0  0  0  0  0  0
   17.5046  -19.6232   -6.7884 H   0  0  0  0  0  0  0  0  0  0  0  0
   16.7757  -20.6246   -5.1599 H   0  0  0  0  0  0  0  0  0  0  0  0
  1  2  1  0
  2  3  1  0
  3  4  1  0
  4  5  1  0
  5  6  1  0
  6  7  2  0
  5  8  2  0
  8  9  1  0
  9 10  1  0
 10 11  1  0
 11 12  1  0
 12 13  1  0
 13 14  1  0
 14 15  1  0
 15 16  1  0
 16 17  1  0
 17 18  1  0
 18 19  1  0
 19 20  1  0
 20 21  1  0
 21 22  1  0
 22 23  1  0
 23 24  1  0
 24 25  1  0
 25 26  1  0
 26 27  1  0
 27 28  1  0
 28 29  1  0
 29 30  1  0
 30 31  1  0
 21 32  1  0
 32 33  1  0
 14 34  1  0
 34 35  1  0
 35 36  1  0
 36  3  1  0
 36 13  1  0
 18 16  1  0
 32 19  1  0
 36 34  1  0
 19 17  1  0
 24 22  1  0
 31 26  1  0
 31 27  1  0
 31 28  1  0
  1 37  1  0
  1 38  1  0
  2 39  1  0
  2 40  1  0
  3 41  1  0
  4 42  1  0
  4 43  1  0
  6 44  1  0
  8 45  1  0
  9 46  1  0
  9 47  1  0
 10 48  1  0
 10 49  1  0
 11 50  1  0
 11 51  1  0
 12 52  1  0
 12 53  1  0
 13 54  1  0
 14 55  1  0
 15 56  1  0
 15 57  1  0
 16 58  1  0
 17 59  1  0
 18 60  1  0
 20 61  1  0
 20 62  1  0
 21 63  1  0
 22 64  1  0
 23 65  1  0
 23 66  1  0
 24 67  1  0
 25 68  1  0
 25 69  1  0
 26 70  1  0
 27 71  1  0
 28 72  1  0
 29 73  1  0
 29 74  1  0
 30 75  1  0
 30 76  1  0
 32 77  1  0
 33 78  1  0
 34 79  1  0
 35 80  1  0
 35 81  1  0
M  END
