
     RDKit          2D

 53 60  0  0  0  0  0  0  0  0999 V2000
   19.9976  -25.8167  -10.6910 C   0  0  0  0  0  0  0  0  0  0  0  0
   19.8054  -24.3612  -10.3831 C   0  0  0  0  0  0  0  0  0  0  0  0
   19.6131  -22.9058  -10.0753 C   0  0  0  0  0  0  0  0  0  0  0  0
   19.4209  -21.4504   -9.7675 C   0  0  0  0  0  0  0  0  0  0  0  0
   19.2287  -19.9949   -9.4596 C   0  0  0  0  0  0  0  0  0  0  0  0
   19.0364  -18.5395   -9.1518 C   0  0  0  0  0  0  0  0  0  0  0  0
   18.8442  -17.0840   -8.8439 C   0  0  0  0  0  0  0  0  0  0  0  0
   19.7696  -16.0634   -9.4371 C   0  0  0  0  0  0  0  0  0  0  0  0
   18.6520  -15.6286   -8.5361 C   0  0  0  0  0  0  0  0  0  0  0  0
   17.7266  -16.6493   -7.9429 C   0  0  0  0  0  0  0  0  0  0  0  0
   17.1156  -17.9816   -7.6242 N   0  0  0  0  0  0  0  0  0  0  0  0
   17.6997  -19.2337   -8.2085 C   0  0  0  0  0  0  0  0  0  0  0  0
   15.9206  -18.0621   -6.7212 N   0  0  0  0  0  0  0  0  0  0  0  0
   15.3097  -19.3944   -6.4024 C   0  0  0  0  0  0  0  0  0  0  0  0
   16.0964  -19.7553   -5.1773 C   0  0  0  0  0  0  0  0  0  0  0  0
   15.8323  -21.0523   -4.4715 C   0  0  0  0  0  0  0  0  0  0  0  0
   15.0456  -20.6914   -5.6967 C   0  0  0  0  0  0  0  0  0  0  0  0
   14.7816  -21.9884   -4.9909 C   0  0  0  0  0  0  0  0  0  0  0  0
   13.7309  -22.9245   -5.5103 O   0  0  0  0  0  0  0  0  0  0  0  0
   14.5175  -23.2854   -4.2852 C   0  0  0  0  0  0  0  0  0  0  0  0
   14.2534  -24.5824   -3.5794 C   0  0  0  0  0  0  0  0  0  0  0  0
   15.0401  -24.9432   -2.3542 C   0  0  0  0  0  0  0  0  0  0  0  0
   14.4291  -26.2756   -2.0356 N   0  0  0  0  0  0  0  0  0  0  0  0
   15.3041  -23.6463   -3.0600 C   0  0  0  0  0  0  0  0  0  0  0  0
   20.1899  -27.2720  -10.9989 H   0  0  0  0  0  0  0  0  0  0  0  0
   21.1762  -25.4782  -11.5549 H   0  0  0  0  0  0  0  0  0  0  0  0
   18.8190  -26.1551   -9.8271 H   0  0  0  0  0  0  0  0  0  0  0  0
   18.6283  -24.6998   -9.5173 H   0  0  0  0  0  0  0  0  0  0  0  0
   20.9825  -24.0225  -11.2490 H   0  0  0  0  0  0  0  0  0  0  0  0
   20.1843  -22.5469  -11.4152 H   0  0  0  0  0  0  0  0  0  0  0  0
   19.0421  -23.2646   -8.7355 H   0  0  0  0  0  0  0  0  0  0  0  0
   18.2399  -21.7884   -8.9067 H   0  0  0  0  0  0  0  0  0  0  0  0
   20.6020  -21.1123  -10.6283 H   0  0  0  0  0  0  0  0  0  0  0  0
   20.4091  -19.6567  -10.3213 H   0  0  0  0  0  0  0  0  0  0  0  0
   18.6185  -20.2676   -9.0251 H   0  0  0  0  0  0  0  0  0  0  0  0
   20.2153  -18.2011  -10.0155 H   0  0  0  0  0  0  0  0  0  0  0  0
   18.3166  -18.9860   -8.6509 H   0  0  0  0  0  0  0  0  0  0  0  0
   20.6751  -16.9609  -10.2275 H   0  0  0  0  0  0  0  0  0  0  0  0
   20.3806  -14.7310   -9.7558 H   0  0  0  0  0  0  0  0  0  0  0  0
   18.4597  -14.1732   -8.2282 H   0  0  0  0  0  0  0  0  0  0  0  0
   16.8211  -15.7518   -7.1526 H   0  0  0  0  0  0  0  0  0  0  0  0
   17.9403  -19.9469   -8.4711 H   0  0  0  0  0  0  0  0  0  0  0  0
   18.8527  -18.7451   -9.0343 H   0  0  0  0  0  0  0  0  0  0  0  0
   16.7361  -20.1958   -7.5797 H   0  0  0  0  0  0  0  0  0  0  0  0
   15.3365  -16.8101   -6.1368 H   0  0  0  0  0  0  0  0  0  0  0  0
   14.2643  -19.6582   -7.4452 H   0  0  0  0  0  0  0  0  0  0  0  0
   17.1470  -18.8192   -4.6579 H   0  0  0  0  0  0  0  0  0  0  0  0
   16.6189  -21.4132   -3.2464 H   0  0  0  0  0  0  0  0  0  0  0  0
   13.2028  -25.5185   -4.0988 H   0  0  0  0  0  0  0  0  0  0  0  0
   16.0389  -24.8414   -1.2398 H   0  0  0  0  0  0  0  0  0  0  0  0
   15.0132  -27.5275   -2.6200 H   0  0  0  0  0  0  0  0  0  0  0  0
   13.2340  -26.3561   -1.1326 H   0  0  0  0  0  0  0  0  0  0  0  0
   16.3548  -22.7102   -2.5406 H   0  0  0  0  0  0  0  0  0  0  0  0
  1  2  1  0
  2  3  1  0
  3  4  1  0
  4  5  1  0
  5  6  1  0
  6  7  1  0
  7  8  1  0
  8  9  1  0
  9 10  1  0
 10 11  1  0
 11 12  1  0
 11 13  1  0
 13 14  1  0
 14 15  1  0
 15 16  1  0
 16 17  1  0
 17 18  1  0
 18 19  1  0
 19 20  1  0
 20 21  1  0
 21 22  1  0
 22 23  1  0
 22 24  1  0
  9  7  1  0
 17 14  1  0
 20 18  1  0
 24 21  1  0
 10  7  1  0
 17 15  1  0
 24 20  1  0
 18 16  1  0
  1 25  1  0
  1 26  1  0
  1 27  1  0
  2 28  1  0
  2 29  1  0
  3 30  1  0
  3 31  1  0
  4 32  1  0
  4 33  1  0
  5 34  1  0
  5 35  1  0
  6 36  1  0
  6 37  1  0
  8 38  1  0
  8 39  1  0
  9 40  1  0
 10 41  1  0
 12 42  1  0
 12 43  1  0
 12 44  1  0
 13 45  1  0
 14 46  1  0
 15 47  1  0
 16 48  1  0
 21 49  1  0
 22 50  1  0
 23 51  1  0
 23 52  1  0
 24 53  1  0
M  END
