
     RDKit          2D

106116  0  0  0  0  0  0  0  0999 V2000
   14.4798  -21.6385   -6.8128 C   0  0  0  0  0  0  0  0  0  0  0  0
   15.9367  -21.7124   -6.4638 C   0  0  0  0  0  0  0  0  0  0  0  0
   16.7148  -21.9483   -5.2031 C   0  0  0  0  0  0  0  0  0  0  0  0
   17.9973  -21.8170   -5.9701 C   0  0  0  0  0  0  0  0  0  0  0  0
   19.2796  -21.6857   -6.7371 C   0  0  0  0  0  0  0  0  0  0  0  0
   18.1637  -21.6959   -6.6391 C   0  0  0  0  0  0  0  0  0  0  0  0
   16.7148  -21.9483   -5.2031 C   0  0  0  0  0  0  0  0  0  0  0  0
   15.4324  -22.0796   -4.4362 C   0  0  0  0  0  0  0  0  0  0  0  0
   17.2191  -21.5811   -7.2307 C   0  0  0  0  0  0  0  0  0  0  0  0
   18.5016  -21.4499   -7.9976 C   0  0  0  0  0  0  0  0  0  0  0  0
   19.5389  -21.2620   -9.0647 C   0  0  0  0  0  0  0  0  0  0  0  0
   20.7860  -21.4203   -8.2464 C   0  0  0  0  0  0  0  0  0  0  0  0
   20.3038  -21.6725   -6.8486 C   0  0  0  0  0  0  0  0  0  0  0  0
   18.8213  -21.6214   -7.0713 C   0  0  0  0  0  0  0  0  0  0  0  0
   17.3388  -21.5704   -7.2941 C   0  0  0  0  0  0  0  0  0  0  0  0
   15.8563  -21.5193   -7.5169 C   0  0  0  0  0  0  0  0  0  0  0  0
   14.3738  -21.4683   -7.7396 C   0  0  0  0  0  0  0  0  0  0  0  0
   17.5662  -21.3791   -8.7643 C   0  0  0  0  0  0  0  0  0  0  0  0
   17.7938  -21.1877  -10.2346 C   0  0  0  0  0  0  0  0  0  0  0  0
   18.0213  -20.9964  -11.7048 C   0  0  0  0  0  0  0  0  0  0  0  0
   16.0837  -21.3341   -8.9879 C   0  0  0  0  0  0  0  0  0  0  0  0
   14.6012  -21.2891   -9.2115 C   0  0  0  0  0  0  0  0  0  0  0  0
   16.3092  -20.8245  -10.3805 C   0  0  0  0  0  0  0  0  0  0  0  0
   16.0140  -20.3302  -11.7657 C   0  0  0  0  0  0  0  0  0  0  0  0
   14.8883  -20.6917  -10.8426 S   0  0  0  0  0  0  0  0  0  0  0  0
   21.7749  -21.6298   -7.1381 C   0  0  0  0  0  0  0  0  0  0  0  0
   22.9027  -21.4596   -8.1123 C   0  0  0  0  0  0  0  0  0  0  0  0
   21.9139  -21.2501   -9.2206 N   0  0  0  0  0  0  0  0  0  0  0  0
   22.0120  -20.9815  -10.6931 C   0  0  0  0  0  0  0  0  0  0  0  0
   22.1103  -20.7130  -12.1656 C   0  0  0  0  0  0  0  0  0  0  0  0
   18.0820  -21.1880   -9.4138 C   0  0  0  0  0  0  0  0  0  0  0  0
   18.5465  -20.9347  -10.8173 C   0  0  0  0  0  0  0  0  0  0  0  0
   17.7211  -20.7039  -12.0483 N   0  0  0  0  0  0  0  0  0  0  0  0
   18.4913  -20.4776  -13.3154 C   0  0  0  0  0  0  0  0  0  0  0  0
   16.0471  -20.7677  -11.6356 C   0  0  0  0  0  0  0  0  0  0  0  0
   16.7271  -21.0127  -10.3212 C   0  0  0  0  0  0  0  0  0  0  0  0
   18.1272  -21.1189   -9.7935 Cl  0  0  0  0  0  0  0  0  0  0  0  0
   15.3902  -21.1260   -9.6507 C   0  0  0  0  0  0  0  0  0  0  0  0
   16.6772  -21.2732   -8.8945 C   0  0  0  0  0  0  0  0  0  0  0  0
   15.6400  -21.4610   -7.8275 C   0  0  0  0  0  0  0  0  0  0  0  0
   14.7101  -20.8810  -10.9650 C   0  0  0  0  0  0  0  0  0  0  0  0
   14.0301  -20.6359  -12.2794 C   0  0  0  0  0  0  0  0  0  0  0  0
   15.3671  -20.5226  -12.9500 C   0  0  0  0  0  0  0  0  0  0  0  0
   16.4825  -20.3498  -13.9379 C   0  0  0  0  0  0  0  0  0  0  0  0
   15.0563  -20.2567  -14.3931 C   0  0  0  0  0  0  0  0  0  0  0  0
   13.7355  -21.8676   -5.5308 H   0  0  0  0  0  0  0  0  0  0  0  0
   13.3099  -21.4617   -7.7349 H   0  0  0  0  0  0  0  0  0  0  0  0
   15.2822  -22.0186   -4.7640 H   0  0  0  0  0  0  0  0  0  0  0  0
   17.3307  -22.1984   -3.8585 H   0  0  0  0  0  0  0  0  0  0  0  0
   18.6131  -22.0671   -4.6255 H   0  0  0  0  0  0  0  0  0  0  0  0
   20.6070  -21.8203   -6.0515 H   0  0  0  0  0  0  0  0  0  0  0  0
   18.9258  -22.0351   -4.8125 H   0  0  0  0  0  0  0  0  0  0  0  0
   17.6434  -22.1664   -4.0456 H   0  0  0  0  0  0  0  0  0  0  0  0
   15.4257  -21.8017   -5.9560 H   0  0  0  0  0  0  0  0  0  0  0  0
   14.1500  -22.2109   -3.6693 H   0  0  0  0  0  0  0  0  0  0  0  0
   16.2087  -22.3957   -3.1923 H   0  0  0  0  0  0  0  0  0  0  0  0
   14.3688  -21.8046   -5.4576 H   0  0  0  0  0  0  0  0  0  0  0  0
   20.1431  -21.0192  -10.4160 H   0  0  0  0  0  0  0  0  0  0  0  0
   20.3364  -21.9424   -5.3734 H   0  0  0  0  0  0  0  0  0  0  0  0
   18.5030  -21.3562   -8.5130 H   0  0  0  0  0  0  0  0  0  0  0  0
   17.9236  -21.8311   -5.8880 H   0  0  0  0  0  0  0  0  0  0  0  0
   17.1112  -21.7617   -5.8239 H   0  0  0  0  0  0  0  0  0  0  0  0
   15.3618  -21.2610   -8.9092 H   0  0  0  0  0  0  0  0  0  0  0  0
   15.1117  -21.7488   -6.2350 H   0  0  0  0  0  0  0  0  0  0  0  0
   12.8913  -21.4172   -7.9624 H   0  0  0  0  0  0  0  0  0  0  0  0
   13.4761  -21.6788   -6.5564 H   0  0  0  0  0  0  0  0  0  0  0  0
   13.2120  -21.6314   -6.8049 H   0  0  0  0  0  0  0  0  0  0  0  0
   18.8688  -21.4896   -8.0286 H   0  0  0  0  0  0  0  0  0  0  0  0
   16.5917  -21.0591  -11.1225 H   0  0  0  0  0  0  0  0  0  0  0  0
   19.2376  -21.2546   -9.8333 H   0  0  0  0  0  0  0  0  0  0  0  0
   18.7651  -20.8349  -12.9974 H   0  0  0  0  0  0  0  0  0  0  0  0
   19.5205  -21.0204  -11.6625 H   0  0  0  0  0  0  0  0  0  0  0  0
   16.5387  -20.9486  -11.9281 H   0  0  0  0  0  0  0  0  0  0  0  0
   15.1885  -21.7629   -7.8633 H   0  0  0  0  0  0  0  0  0  0  0  0
   13.1186  -21.2441   -9.4350 H   0  0  0  0  0  0  0  0  0  0  0  0
   14.1059  -21.0992  -10.6145 H   0  0  0  0  0  0  0  0  0  0  0  0
   13.7041  -21.4367   -8.0184 H   0  0  0  0  0  0  0  0  0  0  0  0
   17.6960  -20.6005  -10.9063 H   0  0  0  0  0  0  0  0  0  0  0  0
   17.3337  -20.0594  -12.4253 H   0  0  0  0  0  0  0  0  0  0  0  0
   15.5668  -19.8525  -13.1155 H   0  0  0  0  0  0  0  0  0  0  0  0
   22.4382  -21.8762   -5.8156 H   0  0  0  0  0  0  0  0  0  0  0  0
   24.0305  -21.2893   -9.0865 H   0  0  0  0  0  0  0  0  0  0  0  0
   23.8917  -21.6690   -7.0041 H   0  0  0  0  0  0  0  0  0  0  0  0
   20.5385  -20.9203  -10.9665 H   0  0  0  0  0  0  0  0  0  0  0  0
   23.5088  -21.0102  -10.5985 H   0  0  0  0  0  0  0  0  0  0  0  0
   22.2086  -20.4445  -13.6380 H   0  0  0  0  0  0  0  0  0  0  0  0
   23.6036  -20.6313  -12.0510 H   0  0  0  0  0  0  0  0  0  0  0  0
   20.6161  -20.8268  -12.0997 H   0  0  0  0  0  0  0  0  0  0  0  0
   19.9817  -21.0227  -10.3903 H   0  0  0  0  0  0  0  0  0  0  0  0
   19.8152  -20.7993  -11.6061 H   0  0  0  0  0  0  0  0  0  0  0  0
   19.2615  -20.2513  -14.5825 H   0  0  0  0  0  0  0  0  0  0  0  0
   17.4288  -20.2788  -14.3554 H   0  0  0  0  0  0  0  0  0  0  0  0
   19.7784  -20.6261  -12.5596 H   0  0  0  0  0  0  0  0  0  0  0  0
   18.1371  -20.9301  -10.8266 H   0  0  0  0  0  0  0  0  0  0  0  0
   14.4453  -21.3291   -8.5035 H   0  0  0  0  0  0  0  0  0  0  0  0
   16.8180  -21.5427   -7.4256 H   0  0  0  0  0  0  0  0  0  0  0  0
   14.6026  -21.6489   -6.7604 H   0  0  0  0  0  0  0  0  0  0  0  0
   14.3377  -21.3189   -8.5581 H   0  0  0  0  0  0  0  0  0  0  0  0
   15.9323  -21.7271   -6.3805 H   0  0  0  0  0  0  0  0  0  0  0  0
   13.3731  -20.9942  -10.2944 H   0  0  0  0  0  0  0  0  0  0  0  0
   13.1922  -20.4065  -13.5021 H   0  0  0  0  0  0  0  0  0  0  0  0
   12.6932  -20.7492  -11.6087 H   0  0  0  0  0  0  0  0  0  0  0  0
   17.8524  -20.4689  -13.3385 H   0  0  0  0  0  0  0  0  0  0  0  0
   17.1876  -20.1165  -15.2411 H   0  0  0  0  0  0  0  0  0  0  0  0
   15.2660  -19.9910  -15.8543 H   0  0  0  0  0  0  0  0  0  0  0  0
   13.5621  -20.2229  -14.5209 H   0  0  0  0  0  0  0  0  0  0  0  0
  1  2  2  3
  2  3  1  0
  3  4  1  0
  4  5  1  0
  5  6  1  0
  6  7  1  0
  7  8  1  0
  6  9  1  0
  9 10  1  0
 10 11  1  0
 11 12  1  0
 12 13  1  0
 13 14  1  0
 14 15  1  0
 15 16  1  0
 16 17  1  0
 15 18  1  0
 18 19  1  0
 19 20  1  0
 18 21  1  0
 21 22  1  0
 21 23  1  0
 23 24  1  0
 24 25  1  0
 13 26  1  0
 26 27  1  0
 27 28  1  0
 28 29  1  0
 29 30  1  0
 11 31  1  0
 31 32  1  0
 32 33  1  0
 33 34  1  0
 33 35  1  0
 35 36  1  0
 36 37  1  0
 36 38  1  0
 38 39  1  0
 39 40  1  0
 38 41  1  0
 41 42  1  0
 42 43  1  0
 43 44  1  0
 44 45  1  0
  9  2  1  0
 31 10  1  0
 41 35  1  0
 45 43  1  0
  9  4  1  0
 26 12  1  0
 39 31  1  0
 10  5  1  0
 28 12  1  0
 43 35  1  0
 25 23  1  0
  1 46  1  0
  1 47  1  0
  3 48  1  0
  3 49  1  0
  4 50  1  0
  5 51  1  0
  6 52  1  0
  7 53  1  0
  7 54  1  0
  8 55  1  0
  8 56  1  0
  8 57  1  0
 11 58  1  0
 13 59  1  0
 14 60  1  0
 14 61  1  0
 15 62  1  0
 16 63  1  0
 16 64  1  0
 17 65  1  0
 17 66  1  0
 17 67  1  0
 18 68  1  0
 19 69  1  0
 19 70  1  0
 20 71  1  0
 20 72  1  0
 20 73  1  0
 21 74  1  0
 22 75  1  0
 22 76  1  0
 22 77  1  0
 23 78  1  0
 24 79  1  0
 24 80  1  0
 26 81  1  0
 27 82  1  0
 27 83  1  0
 29 84  1  0
 29 85  1  0
 30 86  1  0
 30 87  1  0
 30 88  1  0
 32 89  1  0
 32 90  1  0
 34 91  1  0
 34 92  1  0
 34 93  1  0
 36 94  1  0
 38 95  1  0
 39 96  1  0
 40 97  1  0
 40 98  1  0
 40 99  1  0
 41100  1  0
 42101  1  0
 42102  1  0
 44103  1  0
 44104  1  0
 45105  1  0
 45106  1  0
M  END
