
     RDKit          2D

 45 48  0  0  0  0  0  0  0  0999 V2000
   20.3251  -22.4201  -15.4513 C   0  0  0  0  0  0  0  0  0  0  0  0
   21.3019  -22.3926  -14.3132 C   0  0  0  0  0  0  0  0  0  0  0  0
   22.2786  -22.3650  -13.1751 C   0  0  0  0  0  0  0  0  0  0  0  0
   23.2552  -22.3375  -12.0370 N   0  0  0  0  0  0  0  0  0  0  0  0
   20.1638  -22.4058  -13.3362 C   0  0  0  0  0  0  0  0  0  0  0  0
   19.0256  -22.4189  -12.3592 C   0  0  0  0  0  0  0  0  0  0  0  0
   17.8662  -22.4471  -13.3103 C   0  0  0  0  0  0  0  0  0  0  0  0
   16.4513  -22.4765  -13.8075 C   0  0  0  0  0  0  0  0  0  0  0  0
   17.6221  -22.4403  -11.8303 C   0  0  0  0  0  0  0  0  0  0  0  0
   16.1296  -22.4662  -11.6828 C   0  0  0  0  0  0  0  0  0  0  0  0
   16.2769  -22.4522  -10.1902 C   0  0  0  0  0  0  0  0  0  0  0  0
   14.7844  -22.4781  -10.0427 N   0  0  0  0  0  0  0  0  0  0  0  0
   15.6582  -22.4531   -8.8237 C   0  0  0  0  0  0  0  0  0  0  0  0
   14.4393  -22.4685   -7.9495 N   0  0  0  0  0  0  0  0  0  0  0  0
   16.5321  -22.4280   -7.6047 C   0  0  0  0  0  0  0  0  0  0  0  0
   18.0245  -22.4022   -7.7523 C   0  0  0  0  0  0  0  0  0  0  0  0
   18.6433  -22.4013   -9.1188 C   0  0  0  0  0  0  0  0  0  0  0  0
   17.7694  -22.4264  -10.3376 C   0  0  0  0  0  0  0  0  0  0  0  0
   19.3485  -22.4477  -16.5894 H   0  0  0  0  0  0  0  0  0  0  0  0
   21.4634  -22.4138  -16.4283 H   0  0  0  0  0  0  0  0  0  0  0  0
   19.4455  -22.4285  -15.0101 H   0  0  0  0  0  0  0  0  0  0  0  0
   22.4400  -22.3794  -15.2902 H   0  0  0  0  0  0  0  0  0  0  0  0
   23.4166  -22.3510  -14.1521 H   0  0  0  0  0  0  0  0  0  0  0  0
   21.6819  -22.3713  -12.5205 H   0  0  0  0  0  0  0  0  0  0  0  0
   24.7293  -22.3111  -12.3140 H   0  0  0  0  0  0  0  0  0  0  0  0
   22.7580  -22.3363  -10.6218 H   0  0  0  0  0  0  0  0  0  0  0  0
   19.5229  -22.4228  -14.0829 H   0  0  0  0  0  0  0  0  0  0  0  0
   20.6543  -22.3915  -12.5988 H   0  0  0  0  0  0  0  0  0  0  0  0
   20.0795  -22.3918  -11.2920 H   0  0  0  0  0  0  0  0  0  0  0  0
   18.2634  -22.4509  -14.7568 H   0  0  0  0  0  0  0  0  0  0  0  0
   15.0363  -22.5058  -14.3046 H   0  0  0  0  0  0  0  0  0  0  0  0
   16.9484  -22.4780  -15.2227 H   0  0  0  0  0  0  0  0  0  0  0  0
   15.9350  -22.4813  -13.2001 H   0  0  0  0  0  0  0  0  0  0  0  0
   14.6371  -22.4921  -11.5353 H   0  0  0  0  0  0  0  0  0  0  0  0
   15.7723  -22.4781  -12.3953 H   0  0  0  0  0  0  0  0  0  0  0  0
   13.4182  -22.5075  -10.6612 H   0  0  0  0  0  0  0  0  0  0  0  0
   13.0731  -22.4979   -8.5682 H   0  0  0  0  0  0  0  0  0  0  0  0
   14.4036  -22.4578   -6.4500 H   0  0  0  0  0  0  0  0  0  0  0  0
   16.9363  -22.4098   -6.1604 H   0  0  0  0  0  0  0  0  0  0  0  0
   15.2691  -22.4448   -6.7956 H   0  0  0  0  0  0  0  0  0  0  0  0
   19.4774  -22.3731   -7.3803 H   0  0  0  0  0  0  0  0  0  0  0  0
   17.9105  -22.3929   -6.2566 H   0  0  0  0  0  0  0  0  0  0  0  0
   19.9202  -22.3842   -9.9056 H   0  0  0  0  0  0  0  0  0  0  0  0
   19.8812  -22.3725   -8.2722 H   0  0  0  0  0  0  0  0  0  0  0  0
   19.1730  -22.4050  -10.8665 H   0  0  0  0  0  0  0  0  0  0  0  0
  1  2  1  0
  2  3  1  0
  3  4  1  0
  2  5  1  0
  5  6  1  0
  6  7  1  0
  7  8  1  0
  7  9  1  0
  9 10  1  0
 10 11  1  0
 11 12  1  0
 12 13  1  0
 13 14  1  0
 13 15  1  0
 15 16  1  0
 16 17  1  0
 17 18  1  0
  9  6  1  0
 13 11  1  0
 18  9  1  0
 18 11  1  0
  1 19  1  0
  1 20  1  0
  1 21  1  0
  2 22  1  0
  3 23  1  0
  3 24  1  0
  4 25  1  0
  4 26  1  0
  5 27  1  0
  5 28  1  0
  6 29  1  0
  7 30  1  0
  8 31  1  0
  8 32  1  0
  8 33  1  0
 10 34  1  0
 10 35  1  0
 12 36  1  0
 14 37  1  0
 14 38  1  0
 15 39  1  0
 15 40  1  0
 16 41  1  0
 16 42  1  0
 17 43  1  0
 17 44  1  0
 18 45  1  0
M  END
