
     RDKit          2D

 14 14  0  0  0  0  0  0  0  0999 V2000
   17.3838  -18.6264  -16.7386 O   0  0  0  0  0  0  0  0  0  0  0  0
   17.9731  -18.7163  -15.3622 C   0  0  0  0  0  0  0  0  0  0  0  0
   19.2512  -19.2438  -15.9437 O   0  0  0  0  0  0  0  0  0  0  0  0
   18.5624  -18.8062  -13.9856 C   0  0  0  0  0  0  0  0  0  0  0  0
   17.2842  -18.2788  -13.4040 C   0  0  0  0  0  0  0  0  0  0  0  0
   16.6950  -18.1889  -14.7806 C   0  0  0  0  0  0  0  0  0  0  0  0
   18.1959  -19.0389  -17.9304 H   0  0  0  0  0  0  0  0  0  0  0  0
   19.3798  -19.4300  -17.4265 H   0  0  0  0  0  0  0  0  0  0  0  0
   19.8405  -19.3337  -14.5673 H   0  0  0  0  0  0  0  0  0  0  0  0
   19.1516  -18.8961  -12.6091 H   0  0  0  0  0  0  0  0  0  0  0  0
   17.8736  -18.3687  -12.0276 H   0  0  0  0  0  0  0  0  0  0  0  0
   16.0061  -17.7513  -12.8225 H   0  0  0  0  0  0  0  0  0  0  0  0
   15.4169  -17.6614  -14.1989 H   0  0  0  0  0  0  0  0  0  0  0  0
   16.1058  -18.0990  -16.1571 H   0  0  0  0  0  0  0  0  0  0  0  0
  1  2  1  0
  2  3  1  0
  2  4  1  0
  4  5  1  0
  5  6  1  0
  6  2  1  0
  1  7  1  0
  3  8  1  0
  4  9  1  0
  4 10  1  0
  5 11  1  0
  5 12  1  0
  6 13  1  0
  6 14  1  0
M  END
