
     RDKit          2D

 54 58  0  0  0  0  0  0  0  0999 V2000
   22.7053  -21.8834   -6.6868 C   0  0  0  0  0  0  0  0  0  0  0  0
   22.5231  -21.4065   -8.0972 C   0  0  0  0  0  0  0  0  0  0  0  0
   22.3409  -20.9296   -9.5077 C   0  0  0  0  0  0  0  0  0  0  0  0
   20.9047  -21.3034   -9.7256 C   0  0  0  0  0  0  0  0  0  0  0  0
   21.6820  -20.6401  -10.8237 C   0  0  0  0  0  0  0  0  0  0  0  0
   22.4593  -19.9768  -11.9218 C   0  0  0  0  0  0  0  0  0  0  0  0
   20.2457  -21.0138  -11.0416 C   0  0  0  0  0  0  0  0  0  0  0  0
   19.5867  -20.7242  -12.3576 C   0  0  0  0  0  0  0  0  0  0  0  0
   18.8094  -21.3875  -11.2595 C   0  0  0  0  0  0  0  0  0  0  0  0
   17.4831  -21.5506  -11.9409 C   0  0  0  0  0  0  0  0  0  0  0  0
   16.1569  -21.7136  -12.6224 N   0  0  0  0  0  0  0  0  0  0  0  0
   15.0127  -22.3535  -11.8933 C   0  0  0  0  0  0  0  0  0  0  0  0
   14.3537  -22.0639  -13.2094 O   0  0  0  0  0  0  0  0  0  0  0  0
   12.9175  -22.4377  -13.4273 C   0  0  0  0  0  0  0  0  0  0  0  0
   12.1402  -23.1010  -12.3291 C   0  0  0  0  0  0  0  0  0  0  0  0
   12.7992  -23.3905  -11.0131 C   0  0  0  0  0  0  0  0  0  0  0  0
   14.2355  -23.0168  -10.7952 C   0  0  0  0  0  0  0  0  0  0  0  0
   15.5618  -22.8538  -10.1138 Sb  0  0  0  0  0  3  0  0  0  0  0  0
   15.7439  -23.3307   -8.7033 C   0  0  0  0  0  0  0  0  0  0  0  0
   15.9260  -23.8075   -7.2929 C   0  0  0  0  0  0  0  0  0  0  0  0
   15.6094  -24.4142   -5.9581 C   0  0  0  0  0  0  0  0  0  0  0  0
   14.5531  -24.3469   -7.0209 C   0  0  0  0  0  0  0  0  0  0  0  0
   22.8874  -22.3603   -5.2763 H   0  0  0  0  0  0  0  0  0  0  0  0
   24.1347  -21.4299   -6.7180 H   0  0  0  0  0  0  0  0  0  0  0  0
   21.2758  -22.3369   -6.6555 H   0  0  0  0  0  0  0  0  0  0  0  0
   21.0951  -21.8648   -8.0678 H   0  0  0  0  0  0  0  0  0  0  0  0
   23.9511  -20.9483   -8.1267 H   0  0  0  0  0  0  0  0  0  0  0  0
   23.7140  -20.3903   -9.7797 H   0  0  0  0  0  0  0  0  0  0  0  0
   20.1274  -21.9667   -8.6274 H   0  0  0  0  0  0  0  0  0  0  0  0
   23.2365  -19.3135  -13.0199 H   0  0  0  0  0  0  0  0  0  0  0  0
   21.4623  -19.9420  -12.8313 H   0  0  0  0  0  0  0  0  0  0  0  0
   23.6708  -19.9342  -11.0385 H   0  0  0  0  0  0  0  0  0  0  0  0
   20.5133  -20.1327  -13.1413 H   0  0  0  0  0  0  0  0  0  0  0  0
   18.7501  -20.5915  -13.4088 H   0  0  0  0  0  0  0  0  0  0  0  0
   18.4928  -21.9942   -9.9247 H   0  0  0  0  0  0  0  0  0  0  0  0
   17.3247  -21.9793  -10.9476 H   0  0  0  0  0  0  0  0  0  0  0  0
   17.8332  -20.9907  -13.1184 H   0  0  0  0  0  0  0  0  0  0  0  0
   15.9747  -21.2367  -14.0328 H   0  0  0  0  0  0  0  0  0  0  0  0
   15.8683  -22.4081  -11.0325 H   0  0  0  0  0  0  0  0  0  0  0  0
   11.5912  -22.6007  -14.1087 H   0  0  0  0  0  0  0  0  0  0  0  0
   13.2342  -21.8309  -14.7621 H   0  0  0  0  0  0  0  0  0  0  0  0
   10.9961  -23.7408  -11.6001 H   0  0  0  0  0  0  0  0  0  0  0  0
   11.0839  -23.0336  -13.3920 H   0  0  0  0  0  0  0  0  0  0  0  0
   12.9467  -23.7768   -9.8707 H   0  0  0  0  0  0  0  0  0  0  0  0
   11.4261  -23.9299  -10.7412 H   0  0  0  0  0  0  0  0  0  0  0  0
   13.8423  -23.5315   -9.7672 H   0  0  0  0  0  0  0  0  0  0  0  0
   16.2637  -22.5471  -10.3344 H   0  0  0  0  0  0  0  0  0  0  0  0
   14.3152  -23.7867   -8.6730 H   0  0  0  0  0  0  0  0  0  0  0  0
   17.1726  -22.8747   -8.7337 H   0  0  0  0  0  0  0  0  0  0  0  0
   17.3623  -23.4338   -7.0750 H   0  0  0  0  0  0  0  0  0  0  0  0
   16.9357  -24.2512   -5.2766 H   0  0  0  0  0  0  0  0  0  0  0  0
   14.8321  -25.0775   -4.8599 H   0  0  0  0  0  0  0  0  0  0  0  0
   13.4088  -24.9868   -6.2919 H   0  0  0  0  0  0  0  0  0  0  0  0
   13.7432  -24.1325   -8.2651 H   0  0  0  0  0  0  0  0  0  0  0  0
  1  2  1  0
  2  3  1  0
  3  4  1  0
  4  5  1  0
  5  6  1  0
  5  7  1  0
  7  8  1  0
  8  9  1  0
  9 10  1  0
 10 11  1  0
 11 12  1  0
 12 13  1  0
 13 14  1  0
 14 15  1  0
 15 16  1  0
 16 17  1  0
 17 18  1  0
 18 19  1  0
 19 20  1  0
 20 21  1  0
 21 22  1  0
  5  3  1  0
  9  7  1  0
 17 12  1  0
 22 20  1  0
  7  4  1  0
  1 23  1  0
  1 24  1  0
  1 25  1  0
  2 26  1  0
  2 27  1  0
  3 28  1  0
  4 29  1  0
  6 30  1  0
  6 31  1  0
  6 32  1  0
  8 33  1  0
  8 34  1  0
  9 35  1  0
 10 36  1  0
 10 37  1  0
 11 38  1  0
 12 39  1  0
 14 40  1  0
 14 41  1  0
 15 42  1  0
 15 43  1  0
 16 44  1  0
 16 45  1  0
 17 46  1  0
 18 47  1  0
 19 48  1  0
 19 49  1  0
 20 50  1  0
 21 51  1  0
 21 52  1  0
 22 53  1  0
 22 54  1  0
M  END
