
     RDKit          2D

102111  0  0  0  0  0  0  0  0999 V2000
    7.2704   27.0061    4.3500 C   0  0  0  0  0  0  0  0  0  0  0  0
    6.2811   26.4379    5.3240 C   0  0  0  0  0  0  0  0  0  0  0  0
    5.2919   25.8698    6.2979 C   0  0  0  0  0  0  0  0  0  0  0  0
    4.3027   25.3016    7.2720 C   0  0  0  0  0  0  0  0  0  0  0  0
    3.3135   24.7334    8.2460 C   0  0  0  0  0  0  0  0  0  0  0  0
    2.3243   24.1653    9.2199 C   0  0  0  0  0  0  0  0  0  0  0  0
    1.1967   24.6598    8.3632 C   0  0  0  0  0  0  0  0  0  0  0  0
    2.1859   25.2280    7.3892 C   0  0  0  0  0  0  0  0  0  0  0  0
    1.0583   25.7226    6.5325 C   0  0  0  0  0  0  0  0  0  0  0  0
    1.3498   26.5218    5.2971 N   0  0  0  0  0  0  0  0  0  0  0  0
    0.2223   27.0164    4.4403 C   0  0  0  0  0  0  0  0  0  0  0  0
   -0.7653   26.3790    5.3723 C   0  0  0  0  0  0  0  0  0  0  0  0
   -1.7529   25.7417    6.3042 N   0  0  0  0  0  0  0  0  0  0  0  0
   -3.2232   25.8504    6.0276 C   0  0  0  0  0  0  0  0  0  0  0  0
    1.2099   27.6537    3.5084 C   0  0  0  0  0  0  0  0  0  0  0  0
    2.5235   28.0838    2.9260 C   0  0  0  0  0  0  0  0  0  0  0  0
    2.4918   27.2785    4.1910 C   0  0  0  0  0  0  0  0  0  0  0  0
    3.9311   27.1006    4.5743 C   0  0  0  0  0  0  0  0  0  0  0  0
    4.9682   26.5535    5.5097 C   0  0  0  0  0  0  0  0  0  0  0  0
    6.2139   27.0414    4.8315 C   0  0  0  0  0  0  0  0  0  0  0  0
    3.5125   26.3144    5.7813 C   0  0  0  0  0  0  0  0  0  0  0  0
    2.0732   26.4923    5.3980 C   0  0  0  0  0  0  0  0  0  0  0  0
    1.2964   25.7790    6.4647 O   0  0  0  0  0  0  0  0  0  0  0  0
    0.5747   26.4607    5.3402 C   0  0  0  0  0  0  0  0  0  0  0  0
   -0.8444   26.1554    5.7186 C   0  0  0  0  0  0  0  0  0  0  0  0
   -2.2635   25.8502    6.0969 C   0  0  0  0  0  0  0  0  0  0  0  0
   -0.3617   25.4090    6.9268 C   0  0  0  0  0  0  0  0  0  0  0  0
   -1.3271   26.9017    4.5103 C   0  0  0  0  0  0  0  0  0  0  0  0
   -2.6878   26.5181    5.0116 C   0  0  0  0  0  0  0  0  0  0  0  0
   -2.9465   27.4279    3.5633 C   0  0  0  0  0  0  0  0  0  0  0  0
   -1.5042   27.6957    3.2500 C   0  0  0  0  0  0  0  0  0  0  0  0
   -2.9744   27.8028    2.9724 C   0  0  0  0  0  0  0  0  0  0  0  0
   -3.7059   27.0750    4.0610 C   0  0  0  0  0  0  0  0  0  0  0  0
   -5.0140   27.4241    3.4154 C   0  0  0  0  0  0  0  0  0  0  0  0
   -6.5128   27.3624    3.4006 C   0  0  0  0  0  0  0  0  0  0  0  0
   -7.2799   28.0286    2.2972 C   0  0  0  0  0  0  0  0  0  0  0  0
   -6.5484   28.7564    1.2084 C   0  0  0  0  0  0  0  0  0  0  0  0
   -5.0497   28.8180    1.2233 C   0  0  0  0  0  0  0  0  0  0  0  0
   -4.2826   28.1518    2.3267 C   0  0  0  0  0  0  0  0  0  0  0  0
   -8.0114   27.3008    3.3858 C   0  0  0  0  0  0  0  0  0  0  0  0
   -9.4267   27.5182    2.9390 C   0  0  0  0  0  0  0  0  0  0  0  0
  -10.8420   27.7356    2.4923 O   0  0  0  0  0  0  0  0  0  0  0  0
  -11.9769   27.1711    3.2945 C   0  0  0  0  0  0  0  0  0  0  0  0
  -13.1118   26.6067    4.0966 O   0  0  0  0  0  0  0  0  0  0  0  0
    8.2596   27.5742    3.3760 H   0  0  0  0  0  0  0  0  0  0  0  0
    6.2735   27.6405    3.4260 H   0  0  0  0  0  0  0  0  0  0  0  0
    8.3962   26.4367    5.1614 H   0  0  0  0  0  0  0  0  0  0  0  0
    5.1542   26.9782    4.4945 H   0  0  0  0  0  0  0  0  0  0  0  0
    7.2792   25.8324    6.2660 H   0  0  0  0  0  0  0  0  0  0  0  0
    4.4373   26.4905    5.2330 H   0  0  0  0  0  0  0  0  0  0  0  0
    6.4195   25.3717    7.1527 H   0  0  0  0  0  0  0  0  0  0  0  0
    3.1751   25.7955    6.4149 H   0  0  0  0  0  0  0  0  0  0  0  0
    5.4304   24.8076    8.1290 H   0  0  0  0  0  0  0  0  0  0  0  0
    4.4411   24.2388    9.1026 H   0  0  0  0  0  0  0  0  0  0  0  0
    3.4519   23.6707   10.0766 H   0  0  0  0  0  0  0  0  0  0  0  0
    1.3351   23.5971   10.1938 H   0  0  0  0  0  0  0  0  0  0  0  0
    0.2076   24.0917    9.3372 H   0  0  0  0  0  0  0  0  0  0  0  0
   -0.2633   24.8297    8.0642 H   0  0  0  0  0  0  0  0  0  0  0  0
    3.1751   25.7962    6.4152 H   0  0  0  0  0  0  0  0  0  0  0  0
   -0.2913   25.3292    7.0556 H   0  0  0  0  0  0  0  0  0  0  0  0
   -0.6328   27.6504    3.3836 H   0  0  0  0  0  0  0  0  0  0  0  0
   -1.6204   27.0115    4.3145 H   0  0  0  0  0  0  0  0  0  0  0  0
    0.2334   25.8122    6.3373 H   0  0  0  0  0  0  0  0  0  0  0  0
   -1.2703   24.9958    7.5128 H   0  0  0  0  0  0  0  0  0  0  0  0
   -4.7180   25.8609    5.9038 H   0  0  0  0  0  0  0  0  0  0  0  0
   -3.5147   25.0518    7.2634 H   0  0  0  0  0  0  0  0  0  0  0  0
   -3.4781   26.6349    4.7748 H   0  0  0  0  0  0  0  0  0  0  0  0
    0.4203   28.3119    2.4160 H   0  0  0  0  0  0  0  0  0  0  0  0
    2.0408   28.8298    1.7174 H   0  0  0  0  0  0  0  0  0  0  0  0
    4.0048   28.2548    2.7633 H   0  0  0  0  0  0  0  0  0  0  0  0
    4.5458   27.8543    3.4324 H   0  0  0  0  0  0  0  0  0  0  0  0
    5.8866   25.9476    6.5291 H   0  0  0  0  0  0  0  0  0  0  0  0
    7.2210   27.6700    3.9146 H   0  0  0  0  0  0  0  0  0  0  0  0
    7.1930   26.4640    5.8102 H   0  0  0  0  0  0  0  0  0  0  0  0
    5.3804   27.6830    3.7621 H   0  0  0  0  0  0  0  0  0  0  0  0
    3.4806   25.5091    7.0463 H   0  0  0  0  0  0  0  0  0  0  0  0
    0.1668   27.2215    4.1135 H   0  0  0  0  0  0  0  0  0  0  0  0
   -3.7308   25.6382    6.3251 H   0  0  0  0  0  0  0  0  0  0  0  0
   -2.1385   25.0525    7.3611 H   0  0  0  0  0  0  0  0  0  0  0  0
   -2.9155   26.5534    4.9435 H   0  0  0  0  0  0  0  0  0  0  0  0
   -0.0555   24.6308    8.1721 H   0  0  0  0  0  0  0  0  0  0  0  0
   -1.6217   24.9303    7.5850 H   0  0  0  0  0  0  0  0  0  0  0  0
    1.0774   25.2325    7.3112 H   0  0  0  0  0  0  0  0  0  0  0  0
    0.1640   27.0333    4.4147 H   0  0  0  0  0  0  0  0  0  0  0  0
   -3.7700   25.9243    5.8638 H   0  0  0  0  0  0  0  0  0  0  0  0
   -3.3543   28.1893    2.3369 H   0  0  0  0  0  0  0  0  0  0  0  0
   -4.4446   27.3523    3.5705 H   0  0  0  0  0  0  0  0  0  0  0  0
   -0.5366   28.3436    2.3044 H   0  0  0  0  0  0  0  0  0  0  0  0
   -2.2890   28.5423    1.8618 H   0  0  0  0  0  0  0  0  0  0  0  0
   -4.6330   26.4108    5.0354 H   0  0  0  0  0  0  0  0  0  0  0  0
   -5.5564   26.6548    4.5834 H   0  0  0  0  0  0  0  0  0  0  0  0
   -6.4922   26.5577    4.6663 H   0  0  0  0  0  0  0  0  0  0  0  0
   -8.4891   28.4638    1.5236 H   0  0  0  0  0  0  0  0  0  0  0  0
   -7.3155   29.4226    0.1050 H   0  0  0  0  0  0  0  0  0  0  0  0
   -4.3183   29.5458    0.1346 H   0  0  0  0  0  0  0  0  0  0  0  0
   -3.3762   28.8239    1.3385 H   0  0  0  0  0  0  0  0  0  0  0  0
   -8.2514   26.4976    4.6297 H   0  0  0  0  0  0  0  0  0  0  0  0
   -9.9207   26.7572    4.1336 H   0  0  0  0  0  0  0  0  0  0  0  0
   -9.1089   28.3000    1.6990 H   0  0  0  0  0  0  0  0  0  0  0  0
  -10.9979   26.5946    4.2739 H   0  0  0  0  0  0  0  0  0  0  0  0
  -12.9559   27.7476    2.3150 H   0  0  0  0  0  0  0  0  0  0  0  0
  -12.8314   25.8248    5.3456 H   0  0  0  0  0  0  0  0  0  0  0  0
  1  2  1  0
  2  3  1  0
  3  4  1  0
  4  5  1  0
  5  6  1  0
  6  7  1  0
  7  8  1  0
  8  9  1  0
  9 10  2  3
 10 11  1  0
 11 12  1  0
 12 13  1  0
 13 14  1  0
 11 15  1  0
 15 16  1  0
 17 16  1  1
 17 18  1  0
 18 19  1  0
 19 20  1  0
 19 21  1  0
 21 22  1  0
 22 23  1  6
 23 24  1  0
 24 25  1  0
 25 26  1  0
 25 27  1  0
 25 28  1  0
 28 29  1  0
 29 30  1  0
 30 31  1  0
 31 32  1  0
 32 33  1  0
 33 34  1  0
 34 35  1  0
 35 36  1  0
 36 37  1  0
 37 38  2  0
 38 39  1  0
 36 40  1  0
 40 41  1  0
 41 42  1  0
 42 43  1  0
 43 44  1  0
  8  5  1  0
 17 15  1  0
 21 18  1  0
 24 22  1  0
 31 28  1  0
 39 32  1  0
 22 17  1  0
 33 29  1  0
 39 34  1  0
 40 35  1  0
  1 45  1  0
  1 46  1  0
  1 47  1  0
  2 48  1  0
  2 49  1  0
  3 50  1  0
  3 51  1  0
  4 52  1  0
  4 53  1  0
  5 54  1  1
  6 55  1  0
  6 56  1  0
  7 57  1  0
  7 58  1  0
  8 59  1  6
  9 60  1  0
 11 61  1  6
 12 62  1  0
 12 63  1  0
 13 64  1  0
 14 65  1  0
 14 66  1  0
 14 67  1  0
 15 68  1  6
 16 69  1  0
 16 70  1  0
 18 71  1  6
 19 72  1  1
 20 73  1  0
 20 74  1  0
 20 75  1  0
 21 76  1  1
 24 77  1  0
 26 78  1  0
 26 79  1  0
 26 80  1  0
 27 81  1  0
 27 82  1  0
 27 83  1  0
 28 84  1  1
 29 85  1  1
 30 86  1  0
 30 87  1  0
 31 88  1  1
 32 89  1  1
 33 90  1  1
 34 91  1  1
 35 92  1  1
 36 93  1  1
 37 94  1  0
 38 95  1  0
 39 96  1  6
 40 97  1  6
 41 98  1  0
 41 99  1  0
 43100  1  0
 43101  1  0
 44102  1  0
M  END
