
     RDKit          2D

 29 29  0  0  0  0  0  0  0  0999 V2000
   -0.9666   20.0203    3.0927 C   0  0  0  0  0  0  0  0  0  0  0  0
   -0.3571   20.3484    1.7620 C   0  0  0  0  0  0  0  0  0  0  0  0
   -0.8456   19.6589    0.5228 C   0  0  0  0  0  0  0  0  0  0  0  0
    0.2243   20.5699   -0.0020 C   0  0  0  0  0  0  0  0  0  0  0  0
    0.6905   20.7475   -1.4165 C   0  0  0  0  0  0  0  0  0  0  0  0
    0.2020   20.0579   -2.6558 C   0  0  0  0  0  0  0  0  0  0  0  0
   -0.8735   19.0204   -2.7865 C   0  0  0  0  0  0  0  0  0  0  0  0
   -1.7259   18.4163   -1.7102 O   0  0  0  0  0  0  0  0  0  0  0  0
   -1.7136   18.7004   -0.2376 C   0  0  0  0  0  0  0  0  0  0  0  0
   -2.1797   18.5229    1.1771 C   0  0  0  0  0  0  0  0  0  0  0  0
   -2.6460   18.3453    2.5917 C   0  0  0  0  0  0  0  0  0  0  0  0
   -0.4781   20.7099    4.3321 H   0  0  0  0  0  0  0  0  0  0  0  0
   -2.0651   19.0356    3.3643 H   0  0  0  0  0  0  0  0  0  0  0  0
    0.2814   20.9600    1.8153 H   0  0  0  0  0  0  0  0  0  0  0  0
   -1.2502   19.3950    1.1570 H   0  0  0  0  0  0  0  0  0  0  0  0
    1.2633   21.6063    0.3084 H   0  0  0  0  0  0  0  0  0  0  0  0
    0.3107   20.8083    0.8467 H   0  0  0  0  0  0  0  0  0  0  0  0
    1.6214   21.4501   -2.3597 H   0  0  0  0  0  0  0  0  0  0  0  0
    1.6344   21.7476   -0.8176 H   0  0  0  0  0  0  0  0  0  0  0  0
    0.3238   19.8977   -4.1423 H   0  0  0  0  0  0  0  0  0  0  0  0
    1.2325   20.9012   -3.3461 H   0  0  0  0  0  0  0  0  0  0  0  0
   -1.7414   18.0619   -3.5468 H   0  0  0  0  0  0  0  0  0  0  0  0
   -0.5322   19.0719   -4.2463 H   0  0  0  0  0  0  0  0  0  0  0  0
   -2.7890   17.6629   -0.3683 H   0  0  0  0  0  0  0  0  0  0  0  0
   -3.1768   17.4996    0.7201 H   0  0  0  0  0  0  0  0  0  0  0  0
   -1.6841   19.0511    1.5098 H   0  0  0  0  0  0  0  0  0  0  0  0
   -3.1122   18.1677    4.0063 H   0  0  0  0  0  0  0  0  0  0  0  0
   -3.4684   17.1630    2.1723 H   0  0  0  0  0  0  0  0  0  0  0  0
   -1.8866   19.4971    3.1805 H   0  0  0  0  0  0  0  0  0  0  0  0
  1  2  2  3
  2  3  1  0
  3  4  1  0
  4  5  1  0
  5  6  1  0
  6  7  1  0
  7  8  1  0
  8  9  1  0
  9 10  1  0
 10 11  1  0
  9  3  1  0
  1 12  1  0
  1 13  1  0
  2 14  1  0
  3 15  1  0
  4 16  1  0
  4 17  1  0
  5 18  1  0
  5 19  1  0
  6 20  1  0
  6 21  1  0
  7 22  1  0
  7 23  1  0
  9 24  1  0
 10 25  1  0
 10 26  1  0
 11 27  1  0
 11 28  1  0
 11 29  1  0
M  END
