
     RDKit          2D

 25 28  0  0  0  0  0  0  0  0999 V2000
    2.0732   26.3246    6.1418 N   0  0  0  0  0  0  0  0  0  0  0  0
    0.5897   26.1215    6.0522 C   0  0  0  0  0  0  0  0  0  0  0  0
    0.5506   24.7750    5.3921 C   0  0  0  0  0  0  0  0  0  0  0  0
   -0.7284   25.4752    5.7441 C   0  0  0  0  0  0  0  0  0  0  0  0
   -1.6623   26.5266    6.2660 C   0  0  0  0  0  0  0  0  0  0  0  0
   -2.3317   27.7301    6.8607 N   0  0  0  0  0  0  0  0  0  0  0  0
   -3.8152   27.5269    6.7711 C   0  0  0  0  0  0  0  0  0  0  0  0
   -3.8807   28.8722    7.4313 O   0  0  0  0  0  0  0  0  0  0  0  0
   -4.0626   26.1980    6.1210 N   0  0  0  0  0  0  0  0  0  0  0  0
   -3.9970   24.8527    5.4607 C   0  0  0  0  0  0  0  0  0  0  0  0
   -2.6665   24.2345    5.1486 C   0  0  0  0  0  0  0  0  0  0  0  0
   -2.7321   25.5797    5.8088 C   0  0  0  0  0  0  0  0  0  0  0  0
    2.6228   27.5791    6.7534 H   0  0  0  0  0  0  0  0  0  0  0  0
    3.0071   25.2732    5.6199 H   0  0  0  0  0  0  0  0  0  0  0  0
    0.3205   27.3085    6.6361 H   0  0  0  0  0  0  0  0  0  0  0  0
    0.0009   23.5204    4.7805 H   0  0  0  0  0  0  0  0  0  0  0  0
    2.0205   24.5106    5.2525 H   0  0  0  0  0  0  0  0  0  0  0  0
   -1.2857   24.7454    5.3899 H   0  0  0  0  0  0  0  0  0  0  0  0
   -0.6207   27.3005    6.6386 H   0  0  0  0  0  0  0  0  0  0  0  0
   -1.6392   28.9266    7.4429 H   0  0  0  0  0  0  0  0  0  0  0  0
   -5.3123   27.6050    6.8194 H   0  0  0  0  0  0  0  0  0  0  0  0
   -5.2113   29.4904    7.7434 H   0  0  0  0  0  0  0  0  0  0  0  0
   -5.2620   24.1256    5.1127 H   0  0  0  0  0  0  0  0  0  0  0  0
   -3.1174   22.9488    4.5211 H   0  0  0  0  0  0  0  0  0  0  0  0
   -1.7137   24.0158    5.0350 H   0  0  0  0  0  0  0  0  0  0  0  0
  1  2  1  0
  2  3  1  0
  3  4  1  0
  4  5  1  0
  5  6  1  0
  6  7  1  0
  7  8  1  0
  7  9  1  0
  9 10  1  0
 10 11  1  0
 11 12  1  0
  4  2  1  0
 12  5  1  0
 12  9  1  0
 12 10  1  0
  1 13  1  0
  1 14  1  0
  2 15  1  0
  3 16  1  0
  3 17  1  0
  4 18  1  0
  5 19  1  0
  6 20  1  0
  7 21  1  0
  8 22  1  0
 10 23  1  0
 11 24  1  0
 11 25  1  0
M  END
