
     RDKit          2D

 16 18  0  0  0  0  0  0  0  0999 V2000
   15.1964  -21.2645  -10.0512 C   0  0  0  0  0  0  0  0  0  0  0  0
   15.1713  -21.2709   -8.5514 O   0  0  0  0  0  0  0  0  0  0  0  0
   16.3294  -20.3178   -8.5280 O   0  0  0  0  0  0  0  0  0  0  0  0
   16.3545  -20.3114  -10.0277 C   0  0  0  0  0  0  0  0  0  0  0  0
   17.5126  -19.3584  -10.0042 C   0  0  0  0  0  0  0  0  0  0  0  0
   17.7379  -19.1860  -11.4771 C   0  0  0  0  0  0  0  0  0  0  0  0
   18.5013  -18.5680  -12.6109 C   0  0  0  0  0  0  0  0  0  0  0  0
   19.3726  -17.8424  -11.6289 O   0  0  0  0  0  0  0  0  0  0  0  0
   18.6092  -18.4604  -10.4950 N   0  0  0  0  0  0  0  0  0  0  0  0
   15.2216  -21.2580  -11.5510 H   0  0  0  0  0  0  0  0  0  0  0  0
   14.0383  -22.2175  -10.0747 H   0  0  0  0  0  0  0  0  0  0  0  0
   16.2383  -20.4212  -11.5191 H   0  0  0  0  0  0  0  0  0  0  0  0
   17.6893  -19.1998   -8.5231 H   0  0  0  0  0  0  0  0  0  0  0  0
   16.7690  -19.9905  -12.2919 H   0  0  0  0  0  0  0  0  0  0  0  0
   19.2646  -17.9500  -13.7447 H   0  0  0  0  0  0  0  0  0  0  0  0
   17.6300  -19.2936  -13.5929 H   0  0  0  0  0  0  0  0  0  0  0  0
  1  2  1  0
  2  3  1  0
  3  4  1  0
  4  5  1  0
  5  6  1  0
  6  7  1  0
  7  8  1  0
  8  9  1  0
  4  1  1  0
  9  5  1  0
  9  6  1  0
  1 10  1  0
  1 11  1  0
  4 12  1  0
  5 13  1  0
  6 14  1  0
  7 15  1  0
  7 16  1  0
M  END
