
     RDKit          2D

 26 27  0  0  0  0  0  0  0  0999 V2000
   11.4246  -14.4394   -2.6492 C   0  0  0  0  0  0  0  0  0  0  0  0
   11.5591  -15.4240   -3.7726 C   0  0  0  0  0  0  0  0  0  0  0  0
   12.0495  -16.2013   -2.5871 C   0  0  0  0  0  0  0  0  0  0  0  0
   12.5505  -17.6142   -2.5372 C   0  0  0  0  0  0  0  0  0  0  0  0
   13.0951  -18.7313   -1.6972 Br  0  0  0  0  0  0  0  0  0  0  0  0
   12.6850  -18.5989   -3.6607 C   0  0  0  0  0  0  0  0  0  0  0  0
   12.3517  -18.4140   -5.1115 C   0  0  0  0  0  0  0  0  0  0  0  0
   12.0873  -18.4408   -6.5877 O   0  0  0  0  0  0  0  0  0  0  0  0
   11.8015  -17.1986   -5.7971 C   0  0  0  0  0  0  0  0  0  0  0  0
   11.3539  -16.6071   -7.1009 O   0  0  0  0  0  0  0  0  0  0  0  0
   11.4488  -15.8680   -5.2012 C   0  0  0  0  0  0  0  0  0  0  0  0
   10.9477  -14.4550   -5.2510 N   0  0  0  0  0  0  0  0  0  0  0  0
   11.2901  -13.4546   -1.5258 H   0  0  0  0  0  0  0  0  0  0  0  0
   10.9325  -13.4187   -3.3831 H   0  0  0  0  0  0  0  0  0  0  0  0
   11.6978  -14.9145   -2.0704 H   0  0  0  0  0  0  0  0  0  0  0  0
   11.0929  -14.1666   -3.9264 H   0  0  0  0  0  0  0  0  0  0  0  0
   12.3269  -16.2133   -1.1130 H   0  0  0  0  0  0  0  0  0  0  0  0
   11.8908  -15.5314   -2.1852 H   0  0  0  0  0  0  0  0  0  0  0  0
   12.7258  -17.3380   -1.0733 H   0  0  0  0  0  0  0  0  0  0  0  0
   13.0377  -19.9297   -4.2565 H   0  0  0  0  0  0  0  0  0  0  0  0
   13.2021  -19.5151   -2.5915 H   0  0  0  0  0  0  0  0  0  0  0  0
   12.8132  -19.8310   -5.2823 H   0  0  0  0  0  0  0  0  0  0  0  0
   11.4073  -17.4285   -8.3548 H   0  0  0  0  0  0  0  0  0  0  0  0
   11.1154  -15.6830   -6.6520 H   0  0  0  0  0  0  0  0  0  0  0  0
   10.5001  -13.8635   -6.5548 H   0  0  0  0  0  0  0  0  0  0  0  0
   10.7633  -13.3779   -4.2235 H   0  0  0  0  0  0  0  0  0  0  0  0
  1  2  1  0
  2  3  1  0
  3  4  1  0
  4  5  1  0
  4  6  1  0
  6  7  1  0
  7  8  1  0
  8  9  1  0
  9 10  1  0
  9 11  1  0
 11 12  1  0
 11  2  1  0
  9  7  1  0
  1 13  1  0
  1 14  1  0
  1 15  1  0
  2 16  1  0
  3 17  1  0
  3 18  1  0
  4 19  1  0
  6 20  1  0
  6 21  1  0
  7 22  1  0
 10 23  1  0
 11 24  1  0
 12 25  1  0
 12 26  1  0
M  END
