
     RDKit          2D

 35 36  0  0  0  0  0  0  0  0999 V2000
    6.4737   23.4766    7.5449 C   0  0  0  0  0  0  0  0  0  0  0  0
    5.1559   23.1741    6.8954 C   0  0  0  0  0  0  0  0  0  0  0  0
    3.8381   22.8716    6.2460 C   0  0  0  0  0  0  0  0  0  0  0  0
    3.9988   21.4001    6.0037 C   0  0  0  0  0  0  0  0  0  0  0  0
    2.7350   22.0945    5.5907 C   0  0  0  0  0  0  0  0  0  0  0  0
    1.7335   23.1911    5.3799 C   0  0  0  0  0  0  0  0  0  0  0  0
    0.7321   24.2877    5.1690 C   0  0  0  0  0  0  0  0  0  0  0  0
    0.2391   25.7021    5.2517 C   0  0  0  0  0  0  0  0  0  0  0  0
   -1.0726   26.2638    4.7890 C   0  0  0  0  0  0  0  0  0  0  0  0
   -2.2151   25.5501    4.1295 C   0  0  0  0  0  0  0  0  0  0  0  0
   -2.3284   24.0983    3.7697 C   0  0  0  0  0  0  0  0  0  0  0  0
   -1.3269   23.0016    3.9806 C   0  0  0  0  0  0  0  0  0  0  0  0
    0.0351   23.0860    4.6033 C   0  0  0  0  0  0  0  0  0  0  0  0
    7.7916   23.7790    8.1943 H   0  0  0  0  0  0  0  0  0  0  0  0
    6.8722   22.0372    7.4066 H   0  0  0  0  0  0  0  0  0  0  0  0
    6.0753   24.9161    7.6831 H   0  0  0  0  0  0  0  0  0  0  0  0
    5.4149   21.9233    7.3325 H   0  0  0  0  0  0  0  0  0  0  0  0
    5.0278   24.6114    6.4859 H   0  0  0  0  0  0  0  0  0  0  0  0
    3.4206   24.1524    6.3336 H   0  0  0  0  0  0  0  0  0  0  0  0
    3.6824   20.0009    5.5651 H   0  0  0  0  0  0  0  0  0  0  0  0
    5.2172   21.0538    6.4708 H   0  0  0  0  0  0  0  0  0  0  0  0
    1.9797   20.9366    5.0087 H   0  0  0  0  0  0  0  0  0  0  0  0
    1.2429   22.5812    5.2292 H   0  0  0  0  0  0  0  0  0  0  0  0
    2.5645   24.2241    5.6349 H   0  0  0  0  0  0  0  0  0  0  0  0
    1.8746   25.0015    5.8285 H   0  0  0  0  0  0  0  0  0  0  0  0
    1.1826   26.6845    5.8800 H   0  0  0  0  0  0  0  0  0  0  0  0
   -1.2673   27.7337    5.0160 H   0  0  0  0  0  0  0  0  0  0  0  0
   -2.7081   26.9644    4.2122 H   0  0  0  0  0  0  0  0  0  0  0  0
   -3.5907   25.6455    3.5391 H   0  0  0  0  0  0  0  0  0  0  0  0
   -3.6808   24.4899    3.2527 H   0  0  0  0  0  0  0  0  0  0  0  0
   -3.1647   23.0091    3.1661 H   0  0  0  0  0  0  0  0  0  0  0  0
   -2.3676   22.1362    3.3340 H   0  0  0  0  0  0  0  0  0  0  0  0
   -0.9942   21.5481    3.8184 H   0  0  0  0  0  0  0  0  0  0  0  0
    0.0899   21.6152    4.3141 H   0  0  0  0  0  0  0  0  0  0  0  0
    0.7001   22.7015    4.8166 H   0  0  0  0  0  0  0  0  0  0  0  0
  1  2  1  0
  2  3  1  0
  3  4  1  0
  4  5  1  0
  5  6  1  0
  6  7  1  0
  7  8  1  0
  8  9  2  0
  9 10  1  0
 10 11  1  0
 11 12  1  0
 12 13  1  0
  5  3  1  0
 13  7  1  0
  1 14  1  0
  1 15  1  0
  1 16  1  0
  2 17  1  0
  2 18  1  0
  3 19  1  0
  4 20  1  0
  4 21  1  0
  5 22  1  0
  6 23  1  0
  6 24  1  0
  7 25  1  0
  8 26  1  0
  9 27  1  0
 10 28  1  0
 10 29  1  0
 11 30  1  0
 11 31  1  0
 12 32  1  0
 12 33  1  0
 13 34  1  0
 13 35  1  0
M  END
