
     RDKit          2D

 34 37  0  0  0  0  0  0  0  0999 V2000
    3.7795   23.1380    8.3704 C   0  0  0  0  0  0  0  0  0  0  0  0
    3.4593   24.0977    7.2629 N   0  0  0  0  0  0  0  0  0  0  0  0
    4.5550   24.6148    6.3784 C   0  0  0  0  0  0  0  0  0  0  0  0
    5.6505   25.1319    5.4939 F   0  0  0  0  0  0  0  0  0  0  0  0
    2.0436   24.5403    7.0399 C   0  0  0  0  0  0  0  0  0  0  0  0
    1.7463   23.6461    8.2070 C   0  0  0  0  0  0  0  0  0  0  0  0
    0.2709   23.7036    8.4710 C   0  0  0  0  0  0  0  0  0  0  0  0
    0.6665   22.7475    9.5569 C   0  0  0  0  0  0  0  0  0  0  0  0
   -1.0808   23.4620    9.0749 C   0  0  0  0  0  0  0  0  0  0  0  0
   -2.5587   23.7177    9.0958 N   0  0  0  0  0  0  0  0  0  0  0  0
   -3.9104   23.4761    9.6997 Cl  0  0  0  0  0  0  0  0  0  0  0  0
   -1.6954   24.3918    8.0710 C   0  0  0  0  0  0  0  0  0  0  0  0
   -2.0910   25.3479    6.9851 C   0  0  0  0  0  0  0  0  0  0  0  0
   -3.4730   25.1553    7.5355 O   0  0  0  0  0  0  0  0  0  0  0  0
   -0.8522   25.7321    6.2316 C   0  0  0  0  0  0  0  0  0  0  0  0
    0.7518   25.1505    6.5827 C   0  0  0  0  0  0  0  0  0  0  0  0
   -0.3438   24.6334    7.4672 N   0  0  0  0  0  0  0  0  0  0  0  0
    4.0997   22.1783    9.4778 H   0  0  0  0  0  0  0  0  0  0  0  0
    5.2292   23.1799    7.9876 H   0  0  0  0  0  0  0  0  0  0  0  0
    3.0356   23.0537    8.6440 H   0  0  0  0  0  0  0  0  0  0  0  0
    5.5564   23.8010    7.1432 H   0  0  0  0  0  0  0  0  0  0  0  0
    3.5535   25.4286    5.6137 H   0  0  0  0  0  0  0  0  0  0  0  0
    2.6368   25.3420    5.9195 H   0  0  0  0  0  0  0  0  0  0  0  0
    1.8868   22.9464    9.0355 H   0  0  0  0  0  0  0  0  0  0  0  0
    2.5725   23.3673    8.3623 H   0  0  0  0  0  0  0  0  0  0  0  0
    1.0621   21.7913   10.6430 H   0  0  0  0  0  0  0  0  0  0  0  0
   -0.7053   22.5409   10.1273 H   0  0  0  0  0  0  0  0  0  0  0  0
    2.1505   22.6042    9.3916 H   0  0  0  0  0  0  0  0  0  0  0  0
   -1.0173   22.5094   10.2318 H   0  0  0  0  0  0  0  0  0  0  0  0
   -2.7756   26.2639    6.0142 H   0  0  0  0  0  0  0  0  0  0  0  0
   -4.6343   25.8741    6.9152 H   0  0  0  0  0  0  0  0  0  0  0  0
   -1.7957   26.5676    5.4182 H   0  0  0  0  0  0  0  0  0  0  0  0
    0.0527   26.3819    5.2272 H   0  0  0  0  0  0  0  0  0  0  0  0
    0.7661   26.0953    5.4177 H   0  0  0  0  0  0  0  0  0  0  0  0
  1  2  1  0
  2  3  1  0
  3  4  1  0
  2  5  1  0
  5  6  1  0
  6  7  1  0
  7  8  1  0
  7  9  1  0
  9 10  1  0
 10 11  1  0
 10 12  1  0
 12 13  1  0
 13 14  1  0
 13 15  1  0
 15 16  1  0
 16 17  1  0
 16  5  1  0
 17  7  1  0
 12  9  1  0
 17 12  1  0
  1 18  1  0
  1 19  1  0
  1 20  1  0
  3 21  1  0
  3 22  1  0
  5 23  1  0
  6 24  1  0
  6 25  1  0
  8 26  1  0
  8 27  1  0
  8 28  1  0
  9 29  1  0
 13 30  1  0
 14 31  1  0
 15 32  1  0
 15 33  1  0
 16 34  1  0
M  END
