
     RDKit          2D

 30 31  0  0  0  0  0  0  0  0999 V2000
   14.2307  -16.3978   -4.2016 C   0  0  0  0  0  0  0  0  0  0  0  0
   13.3949  -17.1853   -3.2367 C   0  0  0  0  0  0  0  0  0  0  0  0
   12.5591  -17.9730   -2.2717 C   0  0  0  0  0  0  0  0  0  0  0  0
   13.0357  -19.2489   -2.9002 C   0  0  0  0  0  0  0  0  0  0  0  0
   12.8872  -20.7373   -2.7900 C   0  0  0  0  0  0  0  0  0  0  0  0
   13.5378  -21.8060   -3.6175 C   0  0  0  0  0  0  0  0  0  0  0  0
   14.4977  -21.6500   -4.7596 C   0  0  0  0  0  0  0  0  0  0  0  0
   14.3492  -23.1385   -4.6494 C   0  0  0  0  0  0  0  0  0  0  0  0
   14.2007  -24.6271   -4.5392 O   0  0  0  0  0  0  0  0  0  0  0  0
   15.0439  -20.3867   -5.3563 C   0  0  0  0  0  0  0  0  0  0  0  0
   14.7652  -18.9676   -4.9582 C   0  0  0  0  0  0  0  0  0  0  0  0
   13.8715  -18.4612   -3.8652 C   0  0  0  0  0  0  0  0  0  0  0  0
   15.0665  -15.6102   -5.1666 H   0  0  0  0  0  0  0  0  0  0  0  0
   13.7547  -15.1219   -3.5726 H   0  0  0  0  0  0  0  0  0  0  0  0
   14.5836  -16.9544   -4.6501 H   0  0  0  0  0  0  0  0  0  0  0  0
   12.9183  -15.9095   -2.6081 H   0  0  0  0  0  0  0  0  0  0  0  0
   12.0825  -16.6971   -1.6432 H   0  0  0  0  0  0  0  0  0  0  0  0
   11.7233  -18.7606   -1.3067 H   0  0  0  0  0  0  0  0  0  0  0  0
   12.0894  -19.5708   -1.7818 H   0  0  0  0  0  0  0  0  0  0  0  0
   11.9664  -21.2213   -1.7094 H   0  0  0  0  0  0  0  0  0  0  0  0
   13.2647  -22.5966   -3.3263 H   0  0  0  0  0  0  0  0  0  0  0  0
   15.3413  -22.3246   -5.8003 H   0  0  0  0  0  0  0  0  0  0  0  0
   15.2992  -23.3182   -5.7962 H   0  0  0  0  0  0  0  0  0  0  0  0
   13.7817  -23.1403   -3.9693 H   0  0  0  0  0  0  0  0  0  0  0  0
   14.9497  -25.5269   -5.4768 H   0  0  0  0  0  0  0  0  0  0  0  0
   15.7761  -21.3192   -6.2753 H   0  0  0  0  0  0  0  0  0  0  0  0
   15.9316  -19.7606   -6.3907 H   0  0  0  0  0  0  0  0  0  0  0  0
   15.7098  -18.6310   -6.0738 H   0  0  0  0  0  0  0  0  0  0  0  0
   15.0380  -17.9465   -5.2384 H   0  0  0  0  0  0  0  0  0  0  0  0
   14.3319  -17.6121   -4.3778 H   0  0  0  0  0  0  0  0  0  0  0  0
  1  2  1  0
  2  3  1  0
  3  4  1  0
  4  5  1  0
  5  6  2  0
  6  7  1  0
  7  8  1  0
  8  9  1  0
  7 10  1  0
 10 11  1  0
 11 12  1  0
 12  2  1  0
 12  4  1  0
  1 13  1  0
  1 14  1  0
  1 15  1  0
  2 16  1  0
  3 17  1  0
  3 18  1  0
  4 19  1  0
  5 20  1  0
  6 21  1  0
  7 22  1  0
  8 23  1  0
  8 24  1  0
  9 25  1  0
 10 26  1  0
 10 27  1  0
 11 28  1  0
 11 29  1  0
 12 30  1  0
M  END
