
     RDKit          2D

 52 54  0  0  0  0  0  0  0  0999 V2000
   -5.9620   23.6253    4.4779 C   0  0  0  0  0  0  0  0  0  0  0  0
   -5.9182   24.5966    5.6200 C   0  0  0  0  0  0  0  0  0  0  0  0
   -5.8745   25.5679    6.7622 C   0  0  0  0  0  0  0  0  0  0  0  0
   -5.8307   26.5392    7.9044 C   0  0  0  0  0  0  0  0  0  0  0  0
   -7.3153   26.4071    8.0738 C   0  0  0  0  0  0  0  0  0  0  0  0
   -4.3461   26.6715    7.7351 O   0  0  0  0  0  0  0  0  0  0  0  0
   -4.3900   25.7001    6.5929 C   0  0  0  0  0  0  0  0  0  0  0  0
   -2.9054   25.8324    6.4236 C   0  0  0  0  0  0  0  0  0  0  0  0
   -1.4208   25.9645    6.2543 Sb  0  0  0  0  0  3  0  0  0  0  0  0
   -0.8119   26.9102    7.2466 C   0  0  0  0  0  0  0  0  0  0  0  0
    0.5765   27.4031    7.5281 C   0  0  0  0  0  0  0  0  0  0  0  0
    1.1855   28.3489    8.5205 C   0  0  0  0  0  0  0  0  0  0  0  0
    2.5402   28.1002    7.9262 C   0  0  0  0  0  0  0  0  0  0  0  0
    3.8948   27.8516    7.3318 C   0  0  0  0  0  0  0  0  0  0  0  0
    1.9312   27.1545    6.9338 C   0  0  0  0  0  0  0  0  0  0  0  0
    2.4584   26.3100    5.8118 C   0  0  0  0  0  0  0  0  0  0  0  0
    1.8494   25.3643    4.8195 C   0  0  0  0  0  0  0  0  0  0  0  0
    1.9994   24.4210    3.6629 O   0  0  0  0  0  0  0  0  0  0  0  0
    0.4610   24.8714    4.5380 C   0  0  0  0  0  0  0  0  0  0  0  0
   -0.8936   25.1200    5.1323 C   0  0  0  0  0  0  0  0  0  0  0  0
   -2.3712   24.8625    5.1509 O   0  0  0  0  0  0  0  0  0  0  0  0
   -6.0058   22.6539    3.3357 H   0  0  0  0  0  0  0  0  0  0  0  0
   -7.1460   22.9467    5.1003 H   0  0  0  0  0  0  0  0  0  0  0  0
   -4.7780   24.3039    3.8554 H   0  0  0  0  0  0  0  0  0  0  0  0
   -5.5227   25.1160    5.0214 H   0  0  0  0  0  0  0  0  0  0  0  0
   -6.5985   23.5912    6.5011 H   0  0  0  0  0  0  0  0  0  0  0  0
   -6.7477   25.4205    6.7793 H   0  0  0  0  0  0  0  0  0  0  0  0
   -5.7869   27.5106    9.0467 H   0  0  0  0  0  0  0  0  0  0  0  0
   -8.7998   26.2748    8.2431 H   0  0  0  0  0  0  0  0  0  0  0  0
   -7.2724   27.3834    9.2117 H   0  0  0  0  0  0  0  0  0  0  0  0
   -7.4472   25.8253    7.4191 H   0  0  0  0  0  0  0  0  0  0  0  0
   -4.3087   25.1404    5.9113 H   0  0  0  0  0  0  0  0  0  0  0  0
   -3.0288   26.6838    7.4640 H   0  0  0  0  0  0  0  0  0  0  0  0
   -3.3074   24.8598    5.3547 H   0  0  0  0  0  0  0  0  0  0  0  0
   -1.1079   27.7247    8.2819 H   0  0  0  0  0  0  0  0  0  0  0  0
   -2.0955   27.0134    7.6521 H   0  0  0  0  0  0  0  0  0  0  0  0
   -0.1355   27.9556    8.3429 H   0  0  0  0  0  0  0  0  0  0  0  0
    1.7946   29.2946    9.5128 H   0  0  0  0  0  0  0  0  0  0  0  0
   -0.0336   28.5726    9.0554 H   0  0  0  0  0  0  0  0  0  0  0  0
    3.1491   29.0459    8.9185 H   0  0  0  0  0  0  0  0  0  0  0  0
    5.2494   27.6030    6.7375 H   0  0  0  0  0  0  0  0  0  0  0  0
    4.5037   28.7978    8.3238 H   0  0  0  0  0  0  0  0  0  0  0  0
    3.6817   27.0592    6.4357 H   0  0  0  0  0  0  0  0  0  0  0  0
    3.1336   27.2616    6.7967 H   0  0  0  0  0  0  0  0  0  0  0  0
    3.7152   25.9322    5.0852 H   0  0  0  0  0  0  0  0  0  0  0  0
    3.8375   26.8175    6.1127 H   0  0  0  0  0  0  0  0  0  0  0  0
    3.2757   25.2497    4.3690 H   0  0  0  0  0  0  0  0  0  0  0  0
    3.3540   24.1723    3.0685 H   0  0  0  0  0  0  0  0  0  0  0  0
   -0.3305   23.9694    3.6380 H   0  0  0  0  0  0  0  0  0  0  0  0
    1.0123   24.0355    3.4211 H   0  0  0  0  0  0  0  0  0  0  0  0
   -1.3082   24.1489    4.0669 H   0  0  0  0  0  0  0  0  0  0  0  0
   -2.9802   23.9168    4.1585 H   0  0  0  0  0  0  0  0  0  0  0  0
  1  2  1  0
  2  3  1  0
  3  4  1  0
  4  5  1  0
  4  6  1  0
  6  7  1  0
  7  8  1  0
  8  9  1  0
  9 10  1  0
 10 11  1  0
 11 12  1  0
 12 13  1  0
 13 14  1  0
 13 15  1  0
 15 16  1  0
 16 17  1  0
 17 18  1  0
 17 19  1  0
 19 20  1  0
 20 21  1  0
  7  3  1  0
 20  9  1  0
 15 11  1  0
  1 22  1  0
  1 23  1  0
  1 24  1  0
  2 25  1  0
  2 26  1  0
  3 27  1  0
  4 28  1  0
  5 29  1  0
  5 30  1  0
  5 31  1  0
  7 32  1  0
  8 33  1  0
  8 34  1  0
 10 35  1  0
 10 36  1  0
 11 37  1  0
 12 38  1  0
 12 39  1  0
 13 40  1  0
 14 41  1  0
 14 42  1  0
 14 43  1  0
 15 44  1  0
 16 45  1  0
 16 46  1  0
 17 47  1  0
 18 48  1  0
 19 49  1  0
 19 50  1  0
 20 51  1  0
 21 52  1  0
M  END
