
     RDKit          2D

100107  0  0  0  0  0  0  0  0999 V2000
   20.2121  -18.9925  -10.5606 C   0  0  0  0  0  0  0  0  0  0  0  0
   19.4753  -20.2850  -10.3694 C   0  0  0  0  0  0  0  0  0  0  0  0
   18.7385  -21.5776  -10.1781 N   0  0  0  0  0  0  0  0  0  0  0  0
   18.5059  -22.4883  -11.3470 O   0  0  0  0  0  0  0  0  0  0  0  0
   18.2344  -21.9593   -8.8179 C   0  0  0  0  0  0  0  0  0  0  0  0
   17.7303  -22.3411   -7.4577 C   0  0  0  0  0  0  0  0  0  0  0  0
   17.2261  -22.7228   -6.0976 C   0  0  0  0  0  0  0  0  0  0  0  0
   16.7220  -23.1046   -4.7373 C   0  0  0  0  0  0  0  0  0  0  0  0
   17.2808  -21.8320   -4.1731 C   0  0  0  0  0  0  0  0  0  0  0  0
   17.7849  -21.4503   -5.5333 C   0  0  0  0  0  0  0  0  0  0  0  0
   18.4165  -20.7522   -6.7011 C   0  0  0  0  0  0  0  0  0  0  0  0
   18.7588  -20.7128   -8.1610 C   0  0  0  0  0  0  0  0  0  0  0  0
   19.1011  -20.6735   -9.6209 C   0  0  0  0  0  0  0  0  0  0  0  0
   19.8535  -19.4598  -10.0804 As  0  0  0  0  0  3  0  0  0  0  0  0
   20.3364  -19.1259  -11.4608 C   0  0  0  0  0  0  0  0  0  0  0  0
   20.7917  -17.9466  -10.6534 C   0  0  0  0  0  0  0  0  0  0  0  0
   20.1862  -19.9231  -12.7224 C   0  0  0  0  0  0  0  0  0  0  0  0
   19.5160  -21.2511  -12.9154 C   0  0  0  0  0  0  0  0  0  0  0  0
   18.8304  -22.1099  -11.8944 C   0  0  0  0  0  0  0  0  0  0  0  0
   18.6802  -22.9071  -13.1561 O   0  0  0  0  0  0  0  0  0  0  0  0
   17.9664  -24.2261  -13.1293 C   0  0  0  0  0  0  0  0  0  0  0  0
   17.2527  -25.5452  -13.1026 C   0  0  0  0  0  0  0  0  0  0  0  0
   16.5389  -26.8642  -13.0758 C   0  0  0  0  0  0  0  0  0  0  0  0
   15.9498  -28.1581  -13.5543 C   0  0  0  0  0  0  0  0  0  0  0  0
   16.6500  -27.2498  -14.5212 C   0  0  0  0  0  0  0  0  0  0  0  0
   16.4997  -28.0470  -15.7828 C   0  0  0  0  0  0  0  0  0  0  0  0
   18.6459  -21.8527  -10.4281 C   0  0  0  0  0  0  0  0  0  0  0  0
   17.9756  -23.1808  -10.6211 C   0  0  0  0  0  0  0  0  0  0  0  0
   17.3054  -24.5087  -10.8141 C   0  0  0  0  0  0  0  0  0  0  0  0
   17.5261  -24.7006  -12.2853 C   0  0  0  0  0  0  0  0  0  0  0  0
   16.8519  -24.7782   -9.4100 C   0  0  0  0  0  0  0  0  0  0  0  0
   16.1588  -25.6620   -8.4157 C   0  0  0  0  0  0  0  0  0  0  0  0
   15.4119  -26.9233   -8.0977 C   0  0  0  0  0  0  0  0  0  0  0  0
   15.1912  -26.7314   -6.6265 O   0  0  0  0  0  0  0  0  0  0  0  0
   15.8654  -26.6539   -9.5019 N   0  0  0  0  0  0  0  0  0  0  0  0
   16.5585  -25.7701  -10.4962 C   0  0  0  0  0  0  0  0  0  0  0  0
   18.4551  -20.1223   -5.3403 C   0  0  0  0  0  0  0  0  0  0  0  0
   18.2344  -19.9305   -3.8691 C   0  0  0  0  0  0  0  0  0  0  0  0
   18.0137  -19.7386   -2.3979 C   0  0  0  0  0  0  0  0  0  0  0  0
   18.0523  -19.1087   -1.0371 O   0  0  0  0  0  0  0  0  0  0  0  0
   18.6839  -18.4107   -2.2049 C   0  0  0  0  0  0  0  0  0  0  0  0
   19.1966  -17.1763   -1.5242 C   0  0  0  0  0  0  0  0  0  0  0  0
   19.1374  -18.1413   -3.6091 C   0  0  0  0  0  0  0  0  0  0  0  0
   20.8890  -17.6645  -10.3929 H   0  0  0  0  0  0  0  0  0  0  0  0
   20.0553  -18.6871   -9.1005 H   0  0  0  0  0  0  0  0  0  0  0  0
   20.5424  -18.9761  -12.0237 H   0  0  0  0  0  0  0  0  0  0  0  0
   19.3185  -19.9795   -8.9092 H   0  0  0  0  0  0  0  0  0  0  0  0
   19.6321  -20.5905  -11.8295 H   0  0  0  0  0  0  0  0  0  0  0  0
   19.0100  -22.1066  -12.7073 H   0  0  0  0  0  0  0  0  0  0  0  0
   18.8975  -20.6317   -8.5998 H   0  0  0  0  0  0  0  0  0  0  0  0
   17.6193  -23.2694   -9.2119 H   0  0  0  0  0  0  0  0  0  0  0  0
   18.3862  -21.0096   -7.2412 H   0  0  0  0  0  0  0  0  0  0  0  0
   17.2455  -23.5621   -8.1817 H   0  0  0  0  0  0  0  0  0  0  0  0
   16.6673  -23.9954   -6.6618 H   0  0  0  0  0  0  0  0  0  0  0  0
   16.1632  -24.3771   -5.3016 H   0  0  0  0  0  0  0  0  0  0  0  0
   16.2179  -23.4863   -3.3772 H   0  0  0  0  0  0  0  0  0  0  0  0
   16.7767  -22.2138   -2.8129 H   0  0  0  0  0  0  0  0  0  0  0  0
   17.6217  -20.7809   -3.1588 H   0  0  0  0  0  0  0  0  0  0  0  0
   19.9890  -18.6841   -8.8037 H   0  0  0  0  0  0  0  0  0  0  0  0
   21.0547  -18.1500  -12.3449 H   0  0  0  0  0  0  0  0  0  0  0  0
   21.2471  -16.7672   -9.8462 H   0  0  0  0  0  0  0  0  0  0  0  0
   21.3915  -17.3351  -11.8848 H   0  0  0  0  0  0  0  0  0  0  0  0
   20.3200  -18.2543   -9.2632 H   0  0  0  0  0  0  0  0  0  0  0  0
   20.9351  -18.7845  -13.3491 H   0  0  0  0  0  0  0  0  0  0  0  0
   20.4583  -20.0194  -14.1943 H   0  0  0  0  0  0  0  0  0  0  0  0
   19.9249  -21.0765  -14.3480 H   0  0  0  0  0  0  0  0  0  0  0  0
   19.2192  -22.2474  -13.9968 H   0  0  0  0  0  0  0  0  0  0  0  0
   18.0780  -23.3235  -11.4348 H   0  0  0  0  0  0  0  0  0  0  0  0
   17.6421  -24.2288  -11.6648 H   0  0  0  0  0  0  0  0  0  0  0  0
   18.2056  -24.3853  -14.6016 H   0  0  0  0  0  0  0  0  0  0  0  0
   17.5653  -25.5361  -14.5696 H   0  0  0  0  0  0  0  0  0  0  0  0
   16.9401  -25.5542  -11.6355 H   0  0  0  0  0  0  0  0  0  0  0  0
   16.1020  -27.0978  -11.6601 H   0  0  0  0  0  0  0  0  0  0  0  0
   15.3863  -28.6798  -12.2658 H   0  0  0  0  0  0  0  0  0  0  0  0
   15.4811  -29.3508  -14.3337 H   0  0  0  0  0  0  0  0  0  0  0  0
   17.3942  -26.1467  -15.2135 H   0  0  0  0  0  0  0  0  0  0  0  0
   16.3495  -28.8442  -17.0446 H   0  0  0  0  0  0  0  0  0  0  0  0
   17.2368  -26.9840  -16.5422 H   0  0  0  0  0  0  0  0  0  0  0  0
   15.7497  -29.1992  -15.1829 H   0  0  0  0  0  0  0  0  0  0  0  0
   18.0376  -22.4879   -9.2130 H   0  0  0  0  0  0  0  0  0  0  0  0
   17.6280  -23.2173   -9.1625 H   0  0  0  0  0  0  0  0  0  0  0  0
   18.3233  -23.1442  -12.0798 H   0  0  0  0  0  0  0  0  0  0  0  0
   17.7469  -24.8924  -13.7566 H   0  0  0  0  0  0  0  0  0  0  0  0
   16.8099  -26.0169  -12.2212 H   0  0  0  0  0  0  0  0  0  0  0  0
   18.2640  -23.4174  -12.5284 H   0  0  0  0  0  0  0  0  0  0  0  0
   17.3146  -23.5912   -8.6180 H   0  0  0  0  0  0  0  0  0  0  0  0
   16.2628  -24.9325   -7.1091 H   0  0  0  0  0  0  0  0  0  0  0  0
   14.7417  -28.2513   -8.2907 H   0  0  0  0  0  0  0  0  0  0  0  0
   14.4573  -27.7739   -5.8360 H   0  0  0  0  0  0  0  0  0  0  0  0
   16.2772  -26.7466  -11.5995 H   0  0  0  0  0  0  0  0  0  0  0  0
   19.2021  -18.8609   -5.6583 H   0  0  0  0  0  0  0  0  0  0  0  0
   18.5140  -18.5473   -4.3775 H   0  0  0  0  0  0  0  0  0  0  0  0
   17.9377  -21.2372   -3.1950 H   0  0  0  0  0  0  0  0  0  0  0  0
   17.2667  -21.0001   -2.0799 H   0  0  0  0  0  0  0  0  0  0  0  0
   19.7094  -15.9418   -0.8436 H   0  0  0  0  0  0  0  0  0  0  0  0
   18.6426  -17.6658   -0.2191 H   0  0  0  0  0  0  0  0  0  0  0  0
   19.8090  -16.5398   -2.7367 H   0  0  0  0  0  0  0  0  0  0  0  0
   19.5909  -17.8718   -5.0132 H   0  0  0  0  0  0  0  0  0  0  0  0
   19.7726  -16.8085   -3.3436 H   0  0  0  0  0  0  0  0  0  0  0  0
   18.6803  -19.3468   -4.3757 H   0  0  0  0  0  0  0  0  0  0  0  0
  1  2  1  0
  2  3  1  0
  3  4  1  0
  3  5  1  0
  5  6  1  0
  6  7  1  0
  7  8  1  0
  8  9  1  0
  9 10  1  0
 10 11  1  0
 11 12  2  0
 12 13  2  0
 13 14  1  0
 14 15  1  0
 15 16  1  0
 15 17  1  0
 17 18  1  0
 18 19  1  0
 19 20  1  0
 20 21  1  0
 21 22  1  0
 22 23  1  0
 23 24  1  0
 24 25  1  0
 25 26  1  0
 19 27  1  0
 27 28  1  0
 28 29  1  0
 29 30  1  0
 29 31  1  0
 31 32  1  0
 32 33  1  0
 33 34  1  0
 33 35  1  0
 35 36  1  0
 11 37  1  0
 37 38  1  0
 38 39  1  0
 39 40  1  0
 40 41  1  0
 41 42  1  0
 41 43  1  0
 10  7  1  0
 27 13  1  0
 36 29  1  0
 41 39  1  0
 37 10  1  0
 25 23  1  0
 36 31  1  0
 35 32  1  0
  1 44  1  0
  1 45  1  0
  1 46  1  0
  2 47  1  0
  2 48  1  0
  4 49  1  0
  5 50  1  0
  5 51  1  0
  6 52  1  0
  6 53  1  0
  7 54  1  0
  8 55  1  0
  8 56  1  0
  9 57  1  0
  9 58  1  0
 14 59  1  0
 15 60  1  0
 16 61  1  0
 16 62  1  0
 16 63  1  0
 17 64  1  0
 17 65  1  0
 18 66  1  0
 18 67  1  0
 19 68  1  0
 21 69  1  0
 21 70  1  0
 22 71  1  0
 22 72  1  0
 23 73  1  0
 24 74  1  0
 24 75  1  0
 25 76  1  0
 26 77  1  0
 26 78  1  0
 26 79  1  0
 27 80  1  0
 28 81  1  0
 28 82  1  0
 30 83  1  0
 30 84  1  0
 30 85  1  0
 31 86  1  0
 32 87  1  0
 33 88  1  0
 34 89  1  0
 36 90  1  0
 37 91  1  0
 38 92  1  0
 38 93  1  0
 39 94  1  0
 42 95  1  0
 42 96  1  0
 42 97  1  0
 43 98  1  0
 43 99  1  0
 43100  1  0
M  END
