
     RDKit          2D

 52 56  0  0  0  0  0  0  0  0999 V2000
    3.0790   24.7228    4.4589 C   0  0  0  0  0  0  0  0  0  0  0  0
    1.6485   25.1714    4.5082 Al  0  0  0  0  0  3  0  0  0  0  0  0
    0.9680   25.3637    5.8310 C   0  0  0  0  0  0  0  0  0  0  0  0
    2.0896   24.9963    6.7567 C   0  0  0  0  0  0  0  0  0  0  0  0
    0.7591   25.4053    7.3158 C   0  0  0  0  0  0  0  0  0  0  0  0
   -0.6714   25.8539    7.3651 C   0  0  0  0  0  0  0  0  0  0  0  0
   -2.1018   26.3025    7.4144 C   0  0  0  0  0  0  0  0  0  0  0  0
   -3.5323   26.7512    7.4637 C   0  0  0  0  0  0  0  0  0  0  0  0
   -2.1420   26.3393    5.9154 C   0  0  0  0  0  0  0  0  0  0  0  0
   -2.1821   26.3761    4.4164 C   0  0  0  0  0  0  0  0  0  0  0  0
   -2.2223   26.4129    2.9173 C   0  0  0  0  0  0  0  0  0  0  0  0
   -3.6536   26.8586    2.9667 Cl  0  0  0  0  0  0  0  0  0  0  0  0
   -2.2624   26.4497    1.4183 C   0  0  0  0  0  0  0  0  0  0  0  0
   -2.6714   25.2288    0.6488 N   0  0  0  0  0  0  0  0  0  0  0  0
   -2.0617   26.2658    8.9134 C   0  0  0  0  0  0  0  0  0  0  0  0
   -2.5133   26.3845   10.3389 C   0  0  0  0  0  0  0  0  0  0  0  0
   -3.4636   26.7008    9.2223 C   0  0  0  0  0  0  0  0  0  0  0  0
   -4.6272   27.0519   10.1014 C   0  0  0  0  0  0  0  0  0  0  0  0
   -5.7792   27.4278    9.2174 C   0  0  0  0  0  0  0  0  0  0  0  0
   -5.3277   27.3091    7.7918 C   0  0  0  0  0  0  0  0  0  0  0  0
   -6.0347   27.5520    6.4915 C   0  0  0  0  0  0  0  0  0  0  0  0
   -4.6036   27.1027    6.4945 C   0  0  0  0  0  0  0  0  0  0  0  0
   -3.8966   26.8598    7.7949 C   0  0  0  0  0  0  0  0  0  0  0  0
    4.5095   24.2741    4.4096 H   0  0  0  0  0  0  0  0  0  0  0  0
    2.7592   23.8307    3.2962 H   0  0  0  0  0  0  0  0  0  0  0  0
    3.5709   25.5535    5.6068 H   0  0  0  0  0  0  0  0  0  0  0  0
    0.8986   25.4277    3.2347 H   0  0  0  0  0  0  0  0  0  0  0  0
   -0.2403   25.7563    5.0335 H   0  0  0  0  0  0  0  0  0  0  0  0
    2.8395   24.7400    8.0303 H   0  0  0  0  0  0  0  0  0  0  0  0
    3.2675   24.6402    5.8990 H   0  0  0  0  0  0  0  0  0  0  0  0
    1.0470   25.2910    8.7835 H   0  0  0  0  0  0  0  0  0  0  0  0
   -0.4572   25.7626    8.8469 H   0  0  0  0  0  0  0  0  0  0  0  0
   -0.7114   25.8908    5.8661 H   0  0  0  0  0  0  0  0  0  0  0  0
   -4.9300   27.1954    7.1488 H   0  0  0  0  0  0  0  0  0  0  0  0
   -3.5725   26.7881    5.9647 H   0  0  0  0  0  0  0  0  0  0  0  0
   -3.8396   26.8239    8.9301 H   0  0  0  0  0  0  0  0  0  0  0  0
   -0.7641   25.9117    5.5048 H   0  0  0  0  0  0  0  0  0  0  0  0
   -3.5393   26.7848    5.6005 H   0  0  0  0  0  0  0  0  0  0  0  0
   -3.6088   26.8194    4.2825 H   0  0  0  0  0  0  0  0  0  0  0  0
   -0.7496   25.9340    4.3672 H   0  0  0  0  0  0  0  0  0  0  0  0
   -0.7909   25.9672    2.8681 H   0  0  0  0  0  0  0  0  0  0  0  0
   -1.8934   27.7073    0.6888 H   0  0  0  0  0  0  0  0  0  0  0  0
   -2.7115   25.2656   -0.8502 H   0  0  0  0  0  0  0  0  0  0  0  0
   -0.6819   25.8263    9.3046 H   0  0  0  0  0  0  0  0  0  0  0  0
   -1.2543   25.9779   11.0457 H   0  0  0  0  0  0  0  0  0  0  0  0
   -3.4022   26.6445   11.5189 H   0  0  0  0  0  0  0  0  0  0  0  0
   -4.6371   27.0308   11.6012 H   0  0  0  0  0  0  0  0  0  0  0  0
   -7.1434   27.8486    9.6780 H   0  0  0  0  0  0  0  0  0  0  0  0
   -7.3829   27.9670    7.0016 H   0  0  0  0  0  0  0  0  0  0  0  0
   -6.2736   27.6508    5.0139 H   0  0  0  0  0  0  0  0  0  0  0  0
   -4.3702   27.0533    5.0136 H   0  0  0  0  0  0  0  0  0  0  0  0
   -2.7628   26.5187    6.8739 H   0  0  0  0  0  0  0  0  0  0  0  0
  1  2  1  0
  2  3  1  0
  3  4  1  0
  4  5  1  0
  5  6  1  0
  6  7  1  0
  7  8  1  0
  7  9  1  0
  9 10  1  0
 10 11  1  0
 11 12  1  0
 11 13  1  0
 13 14  2  3
  7 15  1  0
 15 16  1  0
 16 17  1  0
 17 18  1  0
 18 19  2  0
 19 20  1  0
 20 21  1  0
 21 22  1  0
 22 23  1  0
  5  3  1  0
 17 15  1  0
 22 20  1  0
 23 17  1  0
 23 20  1  0
  1 24  1  0
  1 25  1  0
  1 26  1  0
  2 27  1  0
  3 28  1  0
  4 29  1  0
  4 30  1  0
  5 31  1  0
  6 32  1  0
  6 33  1  0
  8 34  1  0
  8 35  1  0
  8 36  1  0
  9 37  1  0
  9 38  1  0
 10 39  1  0
 10 40  1  0
 11 41  1  0
 13 42  1  0
 14 43  1  0
 15 44  1  0
 16 45  1  0
 16 46  1  0
 18 47  1  0
 19 48  1  0
 21 49  1  0
 21 50  1  0
 22 51  1  0
 23 52  1  0
M  END
