
     RDKit          2D

 34 34  0  0  0  0  0  0  0  0999 V2000
   13.0743  -20.2198   -2.0028 C   0  0  0  0  0  0  0  0  0  0  0  0
   13.9218  -20.6611   -3.1591 C   0  0  0  0  0  0  0  0  0  0  0  0
   14.7693  -21.1025   -4.3153 C   0  0  0  0  0  0  0  0  0  0  0  0
   15.6168  -21.5438   -5.4716 N   0  0  0  0  0  0  0  0  0  0  0  0
   15.4032  -20.9444   -6.8300 C   0  0  0  0  0  0  0  0  0  0  0  0
   14.6673  -19.9974   -7.7308 C   0  0  0  0  0  0  0  0  0  0  0  0
   14.7462  -19.6399   -9.1854 S   0  0  0  0  0  0  0  0  0  0  0  0
   15.5937  -20.0812  -10.3417 N   0  0  0  0  0  0  0  0  0  0  0  0
   16.7133  -21.0629  -10.5223 C   0  0  0  0  0  0  0  0  0  0  0  0
   17.4493  -22.0099   -9.6214 N   0  0  0  0  0  0  0  0  0  0  0  0
   17.3704  -22.3674   -8.1668 C   0  0  0  0  0  0  0  0  0  0  0  0
   16.5229  -21.9261   -7.0105 C   0  0  0  0  0  0  0  0  0  0  0  0
   17.4531  -22.9551   -6.4396 C   0  0  0  0  0  0  0  0  0  0  0  0
   12.2268  -19.7784   -0.8465 H   0  0  0  0  0  0  0  0  0  0  0  0
   13.8078  -21.1695   -1.1027 H   0  0  0  0  0  0  0  0  0  0  0  0
   12.3408  -19.2701   -2.9029 H   0  0  0  0  0  0  0  0  0  0  0  0
   12.7917  -20.3659   -4.1001 H   0  0  0  0  0  0  0  0  0  0  0  0
   15.0520  -20.9563   -2.2181 H   0  0  0  0  0  0  0  0  0  0  0  0
   13.7842  -20.2957   -5.1081 H   0  0  0  0  0  0  0  0  0  0  0  0
   15.6578  -21.8611   -3.3746 H   0  0  0  0  0  0  0  0  0  0  0  0
   16.2343  -22.2209   -5.1125 H   0  0  0  0  0  0  0  0  0  0  0  0
   14.4950  -20.3401   -6.0346 H   0  0  0  0  0  0  0  0  0  0  0  0
   14.0041  -19.7226   -6.5875 H   0  0  0  0  0  0  0  0  0  0  0  0
   13.6062  -18.9566   -7.9329 H   0  0  0  0  0  0  0  0  0  0  0  0
   15.2381  -19.3752  -11.6165 H   0  0  0  0  0  0  0  0  0  0  0  0
   16.4998  -20.4635  -11.8806 H   0  0  0  0  0  0  0  0  0  0  0  0
   17.7224  -21.7343  -11.4060 H   0  0  0  0  0  0  0  0  0  0  0  0
   18.5139  -22.7801  -10.3449 H   0  0  0  0  0  0  0  0  0  0  0  0
   18.4723  -23.2232   -8.7176 H   0  0  0  0  0  0  0  0  0  0  0  0
   17.8065  -22.8925   -7.7549 H   0  0  0  0  0  0  0  0  0  0  0  0
   16.5511  -22.2602   -5.9696 H   0  0  0  0  0  0  0  0  0  0  0  0
   18.3834  -23.9840   -5.8686 H   0  0  0  0  0  0  0  0  0  0  0  0
   17.2638  -22.6446   -5.1394 H   0  0  0  0  0  0  0  0  0  0  0  0
   17.6854  -23.2717   -7.1334 H   0  0  0  0  0  0  0  0  0  0  0  0
  1  2  1  0
  2  3  1  0
  3  4  1  0
  4  5  1  0
  5  6  1  0
  6  7  1  0
  7  8  1  0
  8  9  1  0
  9 10  1  0
 10 11  1  0
 11 12  1  0
 12 13  1  0
 12  5  1  0
  1 14  1  0
  1 15  1  0
  1 16  1  0
  2 17  1  0
  2 18  1  0
  3 19  1  0
  3 20  1  0
  4 21  1  0
  5 22  1  0
  6 23  1  0
  6 24  1  0
  8 25  1  0
  9 26  1  0
  9 27  1  0
 10 28  1  0
 11 29  1  0
 11 30  1  0
 12 31  1  0
 13 32  1  0
 13 33  1  0
 13 34  1  0
M  END
