
     RDKit          2D

 53 57  0  0  0  0  0  0  0  0999 V2000
   21.4677  -22.8856   -8.9068 C   0  0  0  0  0  0  0  0  0  0  0  0
   19.9922  -22.9783   -8.6527 C   0  0  0  0  0  0  0  0  0  0  0  0
   18.5169  -23.0711   -8.3986 C   0  0  0  0  0  0  0  0  0  0  0  0
   17.0415  -23.1638   -8.1445 C   0  0  0  0  0  0  0  0  0  0  0  0
   15.5654  -22.9636   -8.3212 C   0  0  0  0  0  0  0  0  0  0  0  0
   15.0546  -23.7374   -7.1421 O   0  0  0  0  0  0  0  0  0  0  0  0
   16.5272  -22.3526   -9.2968 C   0  0  0  0  0  0  0  0  0  0  0  0
   17.4891  -21.7417  -10.2723 C   0  0  0  0  0  0  0  0  0  0  0  0
   18.4509  -21.1308  -11.2478 C   0  0  0  0  0  0  0  0  0  0  0  0
   17.9367  -20.3197  -12.4001 C   0  0  0  0  0  0  0  0  0  0  0  0
   16.4607  -20.1195  -12.5768 C   0  0  0  0  0  0  0  0  0  0  0  0
   15.4988  -20.7304  -11.6013 C   0  0  0  0  0  0  0  0  0  0  0  0
   14.2020  -21.1048  -10.9470 C   0  0  0  0  0  0  0  0  0  0  0  0
   16.0130  -21.5415  -10.4490 C   0  0  0  0  0  0  0  0  0  0  0  0
   20.2544  -23.8179   -7.4375 C   0  0  0  0  0  0  0  0  0  0  0  0
   21.7296  -23.7283   -7.6938 C   0  0  0  0  0  0  0  0  0  0  0  0
   23.2048  -23.6388   -7.9500 C   0  0  0  0  0  0  0  0  0  0  0  0
   21.9916  -24.5678   -6.4787 C   0  0  0  0  0  0  0  0  0  0  0  0
   20.5164  -24.6574   -6.2224 C   0  0  0  0  0  0  0  0  0  0  0  0
   19.1592  -24.9612   -5.6604 C   0  0  0  0  0  0  0  0  0  0  0  0
   20.3876  -25.4914   -4.9824 C   0  0  0  0  0  0  0  0  0  0  0  0
   22.9002  -22.6912   -9.3071 H   0  0  0  0  0  0  0  0  0  0  0  0
   21.2057  -22.0457  -10.1216 H   0  0  0  0  0  0  0  0  0  0  0  0
   21.7925  -23.3068   -8.3131 H   0  0  0  0  0  0  0  0  0  0  0  0
   19.9120  -22.1338   -9.8897 H   0  0  0  0  0  0  0  0  0  0  0  0
   18.2549  -22.2320   -9.6140 H   0  0  0  0  0  0  0  0  0  0  0  0
   18.4141  -23.9077   -7.1578 H   0  0  0  0  0  0  0  0  0  0  0  0
   17.0433  -24.0070   -6.9040 H   0  0  0  0  0  0  0  0  0  0  0  0
   14.2668  -22.4947   -8.9075 H   0  0  0  0  0  0  0  0  0  0  0  0
   13.5792  -23.8301   -6.8880 H   0  0  0  0  0  0  0  0  0  0  0  0
   16.1414  -21.3230  -10.7808 H   0  0  0  0  0  0  0  0  0  0  0  0
   19.7477  -20.7563  -11.9021 H   0  0  0  0  0  0  0  0  0  0  0  0
   19.5481  -21.7458  -10.4305 H   0  0  0  0  0  0  0  0  0  0  0  0
   17.9349  -19.4764  -13.6405 H   0  0  0  0  0  0  0  0  0  0  0  0
   19.4121  -20.2270  -12.6541 H   0  0  0  0  0  0  0  0  0  0  0  0
   15.1620  -19.6506  -13.1631 H   0  0  0  0  0  0  0  0  0  0  0  0
   16.9714  -19.3457  -13.7559 H   0  0  0  0  0  0  0  0  0  0  0  0
   14.5342  -20.0494  -12.5263 H   0  0  0  0  0  0  0  0  0  0  0  0
   12.9052  -21.4792  -10.2928 H   0  0  0  0  0  0  0  0  0  0  0  0
   13.4512  -20.3465  -12.0011 H   0  0  0  0  0  0  0  0  0  0  0  0
   14.7891  -21.9032   -9.8210 H   0  0  0  0  0  0  0  0  0  0  0  0
   14.6787  -21.8758   -9.8508 H   0  0  0  0  0  0  0  0  0  0  0  0
   18.7791  -23.9074   -7.1813 H   0  0  0  0  0  0  0  0  0  0  0  0
   21.8323  -22.8920   -8.9349 H   0  0  0  0  0  0  0  0  0  0  0  0
   24.6800  -23.5492   -8.2063 H   0  0  0  0  0  0  0  0  0  0  0  0
   23.6459  -24.4387   -6.7603 H   0  0  0  0  0  0  0  0  0  0  0  0
   23.1233  -22.8170   -9.2022 H   0  0  0  0  0  0  0  0  0  0  0  0
   22.4314  -25.3902   -5.3038 H   0  0  0  0  0  0  0  0  0  0  0  0
   23.4877  -24.5813   -6.5849 H   0  0  0  0  0  0  0  0  0  0  0  0
   18.0271  -24.3651   -6.4435 H   0  0  0  0  0  0  0  0  0  0  0  0
   18.1010  -25.5160   -4.7536 H   0  0  0  0  0  0  0  0  0  0  0  0
   19.7561  -26.2305   -3.8400 H   0  0  0  0  0  0  0  0  0  0  0  0
   21.7776  -25.8604   -4.5557 H   0  0  0  0  0  0  0  0  0  0  0  0
  1  2  1  0
  2  3  1  0
  3  4  1  0
  4  5  1  0
  5  6  1  0
  5  7  1  0
  7  8  1  0
  8  9  1  0
  9 10  1  0
 10 11  1  0
 11 12  1  0
 12 13  1  0
 12 14  1  0
  2 15  1  0
 15 16  1  0
 16 17  1  0
 16 18  1  0
 18 19  1  0
 19 20  1  0
 20 21  1  0
  7  4  1  0
 14  8  1  0
 19 15  1  0
 14  7  1  0
 21 19  1  0
  1 22  1  0
  1 23  1  0
  1 24  1  0
  2 25  1  0
  3 26  1  0
  3 27  1  0
  4 28  1  0
  5 29  1  0
  6 30  1  0
  8 31  1  0
  9 32  1  0
  9 33  1  0
 10 34  1  0
 10 35  1  0
 11 36  1  0
 11 37  1  0
 12 38  1  0
 13 39  1  0
 13 40  1  0
 13 41  1  0
 14 42  1  0
 15 43  1  0
 16 44  1  0
 17 45  1  0
 17 46  1  0
 17 47  1  0
 18 48  1  0
 18 49  1  0
 20 50  1  0
 20 51  1  0
 21 52  1  0
 21 53  1  0
M  END
