
     RDKit          2D

 63 67  0  0  0  0  0  0  0  0999 V2000
    0.3650   18.4671   10.6451 O   0  0  0  0  0  1  0  0  0  0  0  0
    1.4813   19.2106    9.9734 C   0  0  0  0  0  0  0  0  0  0  0  0
    0.5700   20.2989    9.4884 S   0  0  0  0  0  1  0  0  0  0  0  0
    2.6313   18.3049   10.3004 C   0  0  0  0  0  0  0  0  0  0  0  0
    2.8623   19.5499    9.4963 C   0  0  0  0  0  0  0  0  0  0  0  0
    2.5795   20.8317    8.7704 C   0  0  0  0  0  0  0  0  0  0  0  0
    2.2968   22.1135    8.0444 C   0  0  0  0  0  0  0  0  0  0  0  0
    2.0141   23.3953    7.3184 C   0  0  0  0  0  0  0  0  0  0  0  0
    1.7313   24.6771    6.5924 C   0  0  0  0  0  0  0  0  0  0  0  0
    1.4486   25.9589    5.8664 N   0  0  0  0  0  0  0  0  0  0  0  0
    0.0589   26.5232    5.8544 C   0  0  0  0  0  0  0  0  0  0  0  0
   -1.0485   25.8049    6.5669 C   0  0  0  0  0  0  0  0  0  0  0  0
   -1.3309   27.0876    5.8423 C   0  0  0  0  0  0  0  0  0  0  0  0
   -0.2235   27.8059    5.1297 C   0  0  0  0  0  0  0  0  0  0  0  0
    1.1472   28.1162    4.6055 C   0  0  0  0  0  0  0  0  0  0  0  0
    2.5180   28.4264    4.0814 C   0  0  0  0  0  0  0  0  0  0  0  0
    3.9868   28.2913    3.8089 C   0  0  0  0  0  0  0  0  0  0  0  0
    3.2764   27.2515    4.6240 C   0  0  0  0  0  0  0  0  0  0  0  0
    0.8255   21.8303    8.1174 C   0  0  0  0  0  0  0  0  0  0  0  0
    1.4804   20.4809    8.1035 C   0  0  0  0  0  0  0  0  0  0  0  0
    0.9905   19.0638    8.1444 C   0  0  0  0  0  0  0  0  0  0  0  0
   -0.3571   18.4091    8.2163 C   0  0  0  0  0  0  0  0  0  0  0  0
   -1.7731   18.9003    8.2770 C   0  0  0  0  0  0  0  0  0  0  0  0
   -2.4279   20.2497    8.2909 C   0  0  0  0  0  0  0  0  0  0  0  0
   -1.9381   21.6669    8.2499 C   0  0  0  0  0  0  0  0  0  0  0  0
   -0.5904   22.3216    8.1780 C   0  0  0  0  0  0  0  0  0  0  0  0
    4.0303   17.7666   10.3547 H   0  0  0  0  0  0  0  0  0  0  0  0
    1.9145   17.2468   11.0856 H   0  0  0  0  0  0  0  0  0  0  0  0
    4.3040   19.1368    9.4660 H   0  0  0  0  0  0  0  0  0  0  0  0
    1.8697   20.6135    9.0601 H   0  0  0  0  0  0  0  0  0  0  0  0
    3.9814   21.0907    8.3038 H   0  0  0  0  0  0  0  0  0  0  0  0
    3.7681   22.3967    7.9713 H   0  0  0  0  0  0  0  0  0  0  0  0
    3.4090   23.6358    6.8220 H   0  0  0  0  0  0  0  0  0  0  0  0
    3.4779   23.3233    6.9990 H   0  0  0  0  0  0  0  0  0  0  0  0
    3.1749   24.7708    6.1958 H   0  0  0  0  0  0  0  0  0  0  0  0
    0.3330   24.4278    7.0746 H   0  0  0  0  0  0  0  0  0  0  0  0
    2.5556   26.6764    5.1524 H   0  0  0  0  0  0  0  0  0  0  0  0
   -0.4491   24.5752    7.1820 H   0  0  0  0  0  0  0  0  0  0  0  0
   -2.4192   25.4946    7.0911 H   0  0  0  0  0  0  0  0  0  0  0  0
   -2.7206   27.6519    5.8302 H   0  0  0  0  0  0  0  0  0  0  0  0
   -0.9820   28.9807    4.5871 H   0  0  0  0  0  0  0  0  0  0  0  0
    0.6187   29.3638    3.9622 H   0  0  0  0  0  0  0  0  0  0  0  0
    1.6756   26.8685    5.2490 H   0  0  0  0  0  0  0  0  0  0  0  0
    2.2356   29.7091    3.3568 H   0  0  0  0  0  0  0  0  0  0  0  0
    4.2146   29.5270    2.9897 H   0  0  0  0  0  0  0  0  0  0  0  0
    5.3766   27.7269    3.8209 H   0  0  0  0  0  0  0  0  0  0  0  0
    4.4195   26.3261    4.9190 H   0  0  0  0  0  0  0  0  0  0  0  0
    2.1691   26.5332    5.3365 H   0  0  0  0  0  0  0  0  0  0  0  0
    1.1136   23.3021    8.0852 H   0  0  0  0  0  0  0  0  0  0  0  0
    2.6097   19.4945    8.0626 H   0  0  0  0  0  0  0  0  0  0  0  0
    2.8165   21.1590    8.0318 H   0  0  0  0  0  0  0  0  0  0  0  0
    1.4514   17.6364    8.1406 H   0  0  0  0  0  0  0  0  0  0  0  0
    2.3475   18.4269    8.0884 H   0  0  0  0  0  0  0  0  0  0  0  0
   -1.0393   17.0740    8.2653 H   0  0  0  0  0  0  0  0  0  0  0  0
    0.4789   17.1638    8.1925 H   0  0  0  0  0  0  0  0  0  0  0  0
   -3.1988   18.4397    8.3501 H   0  0  0  0  0  0  0  0  0  0  0  0
   -2.0612   17.4286    8.3091 H   0  0  0  0  0  0  0  0  0  0  0  0
   -3.7620   20.9334    8.3453 H   0  0  0  0  0  0  0  0  0  0  0  0
   -3.6714   19.4136    8.3601 H   0  0  0  0  0  0  0  0  0  0  0  0
   -2.3990   23.0943    8.2537 H   0  0  0  0  0  0  0  0  0  0  0  0
   -3.4084   21.9561    8.3157 H   0  0  0  0  0  0  0  0  0  0  0  0
    0.0918   23.6566    8.1290 H   0  0  0  0  0  0  0  0  0  0  0  0
   -1.4264   23.5668    8.2018 H   0  0  0  0  0  0  0  0  0  0  0  0
  1  2  1  0
  2  3  1  0
  2  4  1  0
  4  5  1  0
  5  6  1  0
  6  7  1  0
  7  8  1  0
  8  9  1  0
  9 10  1  0
 10 11  1  0
 11 12  1  0
 12 13  1  0
 13 14  1  0
 14 15  1  0
 15 16  1  0
 16 17  1  0
 17 18  1  0
  7 19  1  0
 19 20  1  0
 20 21  1  0
 21 22  1  0
 22 23  1  0
 23 24  1  0
 24 25  1  0
 25 26  1  0
  5  2  1  0
 13 11  1  0
 18 16  1  0
 26 19  1  0
 14 11  1  0
  4 27  1  0
  4 28  1  0
  5 29  1  0
  6 30  1  0
  6 31  1  0
  7 32  1  0
  8 33  1  0
  8 34  1  0
  9 35  1  0
  9 36  1  0
 10 37  1  0
 12 38  1  0
 12 39  1  0
 13 40  1  0
 14 41  1  0
 15 42  1  0
 15 43  1  0
 16 44  1  0
 17 45  1  0
 17 46  1  0
 18 47  1  0
 18 48  1  0
 19 49  1  0
 20 50  1  0
 20 51  1  0
 21 52  1  0
 21 53  1  0
 22 54  1  0
 22 55  1  0
 23 56  1  0
 23 57  1  0
 24 58  1  0
 24 59  1  0
 25 60  1  0
 25 61  1  0
 26 62  1  0
 26 63  1  0
M  RAD  2   1   2   3   2
M  END
