
     RDKit          2D

 19 19  0  0  0  0  0  0  0  0999 V2000
   -4.9957   25.0541    4.2431 N   0  0  0  0  0  0  0  0  0  0  0  0
   -4.6505   24.2053    3.0555 C   0  0  0  0  0  0  0  0  0  0  0  0
   -4.4175   23.8054    1.6287 C   0  0  0  0  0  0  0  0  0  0  0  0
   -3.9814   22.4075    1.3032 C   0  0  0  0  0  0  0  0  0  0  0  0
   -3.7783   21.4096    2.4045 C   0  0  0  0  0  0  0  0  0  0  0  0
   -4.0112   21.8095    3.8313 C   0  0  0  0  0  0  0  0  0  0  0  0
   -4.4474   23.2074    4.1568 N   0  0  0  0  0  0  0  0  0  0  0  0
   -4.9900   24.6362    5.6836 H   0  0  0  0  0  0  0  0  0  0  0  0
   -5.3996   26.4857    4.0497 H   0  0  0  0  0  0  0  0  0  0  0  0
   -4.9735   25.4980    2.3666 H   0  0  0  0  0  0  0  0  0  0  0  0
   -4.8214   25.2369    1.4353 H   0  0  0  0  0  0  0  0  0  0  0  0
   -4.3248   23.9026    0.1347 H   0  0  0  0  0  0  0  0  0  0  0  0
   -4.0401   22.9903   -0.0777 H   0  0  0  0  0  0  0  0  0  0  0  0
   -3.5657   21.2122    0.4981 H   0  0  0  0  0  0  0  0  0  0  0  0
   -3.4331   20.5608    1.2169 H   0  0  0  0  0  0  0  0  0  0  0  0
   -3.4553   20.1169    3.0934 H   0  0  0  0  0  0  0  0  0  0  0  0
   -3.6073   20.3780    4.0247 H   0  0  0  0  0  0  0  0  0  0  0  0
   -4.1040   21.7123    5.3252 H   0  0  0  0  0  0  0  0  0  0  0  0
   -4.6336   23.4357    5.6276 H   0  0  0  0  0  0  0  0  0  0  0  0
  1  2  1  0
  2  3  1  0
  3  4  1  0
  4  5  1  0
  5  6  1  0
  6  7  1  0
  7  2  1  0
  1  8  1  0
  1  9  1  0
  2 10  1  0
  3 11  1  0
  3 12  1  0
  4 13  1  0
  4 14  1  0
  5 15  1  0
  5 16  1  0
  6 17  1  0
  6 18  1  0
  7 19  1  0
M  END
