
     RDKit          2D

 68 74  0  0  0  0  0  0  0  0999 V2000
   23.4837  -18.8246  -19.8210 C   0  0  0  0  0  0  0  0  0  0  0  0
   22.8230  -18.8509  -18.4747 C   0  0  0  0  0  0  0  0  0  0  0  0
   22.1623  -18.8772  -17.1283 C   0  0  0  0  0  0  0  0  0  0  0  0
   21.5016  -18.9034  -15.7819 C   0  0  0  0  0  0  0  0  0  0  0  0
   20.8408  -18.9297  -14.4355 C   0  0  0  0  0  0  0  0  0  0  0  0
   20.1801  -18.9560  -13.0892 C   0  0  0  0  0  0  0  0  0  0  0  0
   19.5194  -18.9821  -11.7427 C   0  0  0  0  0  0  0  0  0  0  0  0
   19.2334  -17.5205  -11.5643 C   0  0  0  0  0  0  0  0  0  0  0  0
   18.8248  -16.1499  -11.1121 C   0  0  0  0  0  0  0  0  0  0  0  0
   18.3112  -14.9303  -10.4059 N   0  0  0  0  0  0  0  0  0  0  0  0
   18.1778  -16.2800   -9.7651 C   0  0  0  0  0  0  0  0  0  0  0  0
   18.1866  -17.7309   -9.3848 N   0  0  0  0  0  0  0  0  0  0  0  0
   17.6391  -18.3130   -8.1154 C   0  0  0  0  0  0  0  0  0  0  0  0
   17.3625  -16.8473   -7.9570 C   0  0  0  0  0  0  0  0  0  0  0  0
   18.1594  -19.5197   -8.8387 C   0  0  0  0  0  0  0  0  0  0  0  0
   18.1375  -20.9542   -8.4008 C   0  0  0  0  0  0  0  0  0  0  0  0
   17.5900  -21.5363   -7.1313 C   0  0  0  0  0  0  0  0  0  0  0  0
   16.9291  -20.8276   -5.9863 C   0  0  0  0  0  0  0  0  0  0  0  0
   16.6525  -19.3619   -5.8279 C   0  0  0  0  0  0  0  0  0  0  0  0
   15.9700  -19.0707   -4.5244 C   0  0  0  0  0  0  0  0  0  0  0  0
   15.8802  -20.4583   -3.9617 C   0  0  0  0  0  0  0  0  0  0  0  0
   15.7905  -21.8459   -3.3991 C   0  0  0  0  0  0  0  0  0  0  0  0
   15.4745  -22.9650   -2.4516 C   0  0  0  0  0  0  0  0  0  0  0  0
   15.1079  -21.5547   -2.0955 C   0  0  0  0  0  0  0  0  0  0  0  0
   14.4765  -21.7806   -0.7538 C   0  0  0  0  0  0  0  0  0  0  0  0
   16.2859  -17.9516   -5.4719 C   0  0  0  0  0  0  0  0  0  0  0  0
   16.9685  -18.2428   -6.7755 C   0  0  0  0  0  0  0  0  0  0  0  0
   18.8391  -18.4977  -10.4968 C   0  0  0  0  0  0  0  0  0  0  0  0
   24.1445  -18.7983  -21.1674 H   0  0  0  0  0  0  0  0  0  0  0  0
   23.6638  -20.3126  -19.7616 H   0  0  0  0  0  0  0  0  0  0  0  0
   23.3036  -17.3366  -19.8803 H   0  0  0  0  0  0  0  0  0  0  0  0
   22.9931  -20.3403  -18.4203 H   0  0  0  0  0  0  0  0  0  0  0  0
   22.6530  -17.3616  -18.5291 H   0  0  0  0  0  0  0  0  0  0  0  0
   21.3637  -17.6621  -17.4965 H   0  0  0  0  0  0  0  0  0  0  0  0
   22.9610  -20.0923  -16.7601 H   0  0  0  0  0  0  0  0  0  0  0  0
   21.1115  -17.4643  -15.9452 H   0  0  0  0  0  0  0  0  0  0  0  0
   21.8916  -20.3425  -15.6185 H   0  0  0  0  0  0  0  0  0  0  0  0
   20.9959  -20.4209  -14.3884 H   0  0  0  0  0  0  0  0  0  0  0  0
   20.6857  -17.4385  -14.4825 H   0  0  0  0  0  0  0  0  0  0  0  0
   20.3531  -20.4449  -13.0332 H   0  0  0  0  0  0  0  0  0  0  0  0
   20.0981  -17.6230  -13.2867 H   0  0  0  0  0  0  0  0  0  0  0  0
   19.5758  -20.4530  -11.4535 H   0  0  0  0  0  0  0  0  0  0  0  0
   19.7197  -16.9752  -12.6995 H   0  0  0  0  0  0  0  0  0  0  0  0
   19.3266  -15.4278  -12.3273 H   0  0  0  0  0  0  0  0  0  0  0  0
   18.0917  -13.4470  -10.3681 H   0  0  0  0  0  0  0  0  0  0  0  0
   17.7314  -15.9621   -8.9477 H   0  0  0  0  0  0  0  0  0  0  0  0
   17.0859  -15.3815   -7.7986 H   0  0  0  0  0  0  0  0  0  0  0  0
   17.6497  -16.5233   -8.6263 H   0  0  0  0  0  0  0  0  0  0  0  0
   16.7075  -16.9293   -6.6101 H   0  0  0  0  0  0  0  0  0  0  0  0
   18.6125  -18.6716   -9.9899 H   0  0  0  0  0  0  0  0  0  0  0  0
   18.7942  -20.3827   -9.8886 H   0  0  0  0  0  0  0  0  0  0  0  0
   18.7433  -21.9365   -9.3590 H   0  0  0  0  0  0  0  0  0  0  0  0
   17.7207  -23.0236   -6.9880 H   0  0  0  0  0  0  0  0  0  0  0  0
   16.9073  -22.2621   -5.5484 H   0  0  0  0  0  0  0  0  0  0  0  0
   16.2795  -20.9392   -4.6390 H   0  0  0  0  0  0  0  0  0  0  0  0
   15.3185  -18.2976   -3.4162 H   0  0  0  0  0  0  0  0  0  0  0  0
   15.2252  -19.7520   -2.8118 H   0  0  0  0  0  0  0  0  0  0  0  0
   16.5352  -21.1645   -5.1116 H   0  0  0  0  0  0  0  0  0  0  0  0
   16.4420  -22.6189   -4.5072 H   0  0  0  0  0  0  0  0  0  0  0  0
   16.0163  -24.1267   -3.2307 H   0  0  0  0  0  0  0  0  0  0  0  0
   15.0304  -23.8345   -1.3128 H   0  0  0  0  0  0  0  0  0  0  0  0
   14.8803  -20.0731   -2.0410 H   0  0  0  0  0  0  0  0  0  0  0  0
   13.8450  -22.0065    0.5879 H   0  0  0  0  0  0  0  0  0  0  0  0
   14.2241  -20.3076   -0.6245 H   0  0  0  0  0  0  0  0  0  0  0  0
   14.6499  -23.2701   -0.7185 H   0  0  0  0  0  0  0  0  0  0  0  0
   15.9193  -16.5414   -5.1158 H   0  0  0  0  0  0  0  0  0  0  0  0
   16.8062  -16.7537   -6.8552 H   0  0  0  0  0  0  0  0  0  0  0  0
   18.7883  -19.9139  -10.0053 H   0  0  0  0  0  0  0  0  0  0  0  0
  1  2  1  0
  2  3  1  0
  3  4  1  0
  4  5  1  0
  5  6  1  0
  6  7  1  0
  7  8  1  0
  8  9  1  0
  9 10  1  0
 10 11  1  0
 11 12  1  0
 12 13  1  0
 13 14  1  0
 13 15  1  0
 15 16  1  0
 16 17  2  0
 17 18  1  0
 18 19  1  0
 19 20  1  0
 20 21  1  0
 21 22  1  0
 22 23  1  0
 23 24  1  0
 24 25  1  0
 20 26  1  0
 26 27  1  0
 12 28  1  0
 28  7  1  0
 28  8  1  0
 11  9  1  0
 27 13  1  0
 26 19  1  0
 27 19  1  0
 24 22  1  0
  1 29  1  0
  1 30  1  0
  1 31  1  0
  2 32  1  0
  2 33  1  0
  3 34  1  0
  3 35  1  0
  4 36  1  0
  4 37  1  0
  5 38  1  0
  5 39  1  0
  6 40  1  0
  6 41  1  0
  7 42  1  0
  8 43  1  0
  9 44  1  0
 10 45  1  0
 11 46  1  0
 14 47  1  0
 14 48  1  0
 14 49  1  0
 15 50  1  0
 15 51  1  0
 16 52  1  0
 17 53  1  0
 18 54  1  0
 18 55  1  0
 20 56  1  0
 21 57  1  0
 21 58  1  0
 22 59  1  0
 23 60  1  0
 23 61  1  0
 24 62  1  0
 25 63  1  0
 25 64  1  0
 25 65  1  0
 26 66  1  0
 27 67  1  0
 28 68  1  0
M  END
