
     RDKit          2D

 74 86  0  0  0  0  0  0  0  0999 V2000
   -3.2575   26.7952    1.5245 C   0  0  0  0  0  0  0  0  0  0  0  0
   -2.9858   26.7890    2.9997 C   0  0  0  0  0  0  0  0  0  0  0  0
   -2.0716   25.7564    3.5895 C   0  0  0  0  0  0  0  0  0  0  0  0
   -2.3800   26.4502    4.8832 C   0  0  0  0  0  0  0  0  0  0  0  0
   -1.6319   25.7465    5.9764 C   0  0  0  0  0  0  0  0  0  0  0  0
   -1.9403   26.4403    7.2700 O   0  0  0  0  0  0  0  0  0  0  0  0
   -1.6684   26.4340    8.7452 C   0  0  0  0  0  0  0  0  0  0  0  0
   -2.4392   27.5628    9.3632 C   0  0  0  0  0  0  0  0  0  0  0  0
   -2.1674   27.5566   10.8384 C   0  0  0  0  0  0  0  0  0  0  0  0
   -1.2287   26.4240   11.1321 C   0  0  0  0  0  0  0  0  0  0  0  0
   -0.9203   25.7302    9.8384 C   0  0  0  0  0  0  0  0  0  0  0  0
    0.0184   24.5978   10.1321 C   0  0  0  0  0  0  0  0  0  0  0  0
    0.9485   23.4226   10.1944 C   0  0  0  0  0  0  0  0  0  0  0  0
    0.8207   23.2427    8.7107 C   0  0  0  0  0  0  0  0  0  0  0  0
    0.8257   22.7814    6.7452 N   0  0  0  0  0  0  0  0  0  0  0  0
    0.0776   23.4852    5.6520 C   0  0  0  0  0  0  0  0  0  0  0  0
    0.9998   22.3022    5.6366 C   0  0  0  0  0  0  0  0  0  0  0  0
    1.8651   21.1206    5.3128 C   0  0  0  0  0  0  0  0  0  0  0  0
    1.1170   21.8244    4.2196 C   0  0  0  0  0  0  0  0  0  0  0  0
    0.2673   22.7119    3.3592 C   0  0  0  0  0  0  0  0  0  0  0  0
   -0.3751   23.7384    4.2445 C   0  0  0  0  0  0  0  0  0  0  0  0
   -0.8612   24.6177    5.3583 C   0  0  0  0  0  0  0  0  0  0  0  0
   -1.1329   24.6239    3.8831 C   0  0  0  0  0  0  0  0  0  0  0  0
   -0.1095   24.4179    8.6483 S   0  0  0  0  0  0  0  0  0  0  0  0
   -1.7147   27.3034   12.2459 C   0  0  0  0  0  0  0  0  0  0  0  0
   -2.3285   27.1644    8.2536 C   0  0  0  0  0  0  0  0  0  0  0  0
   -3.1317   27.9644    7.2716 C   0  0  0  0  0  0  0  0  0  0  0  0
   -4.0705   29.0970    6.9779 C   0  0  0  0  0  0  0  0  0  0  0  0
   -3.5845   28.2176    5.8640 C   0  0  0  0  0  0  0  0  0  0  0  0
   -2.7619   27.0560    5.3906 C   0  0  0  0  0  0  0  0  0  0  0  0
   -3.0175   27.3397    5.2034 C   0  0  0  0  0  0  0  0  0  0  0  0
   -3.9231   28.1597    3.7429 C   0  0  0  0  0  0  0  0  0  0  0  0
   -2.5063   26.7725    5.5778 C   0  0  0  0  0  0  0  0  0  0  0  0
   -1.6704   25.1934    3.3737 C   0  0  0  0  0  0  0  0  0  0  0  0
   -2.3092   26.8028    6.7981 C   0  0  0  0  0  0  0  0  0  0  0  0
   -4.1718   27.8278    0.9346 H   0  0  0  0  0  0  0  0  0  0  0  0
   -2.6152   25.7688    0.6391 H   0  0  0  0  0  0  0  0  0  0  0  0
   -3.8309   27.9623    3.3988 H   0  0  0  0  0  0  0  0  0  0  0  0
   -1.9544   25.2785    2.1726 H   0  0  0  0  0  0  0  0  0  0  0  0
   -3.0459   27.4970    5.7263 H   0  0  0  0  0  0  0  0  0  0  0  0
   -3.1747   27.2348    3.8817 H   0  0  0  0  0  0  0  0  0  0  0  0
   -1.6877   26.7955   10.2009 H   0  0  0  0  0  0  0  0  0  0  0  0
   -3.0774   28.0895    8.1122 H   0  0  0  0  0  0  0  0  0  0  0  0
   -3.2537   28.7197    9.8613 H   0  0  0  0  0  0  0  0  0  0  0  0
   -3.0327   28.7382   11.1622 H   0  0  0  0  0  0  0  0  0  0  0  0
   -0.5009   25.7542   12.2598 H   0  0  0  0  0  0  0  0  0  0  0  0
   -0.3841   25.3571   11.1887 H   0  0  0  0  0  0  0  0  0  0  0  0
   -0.3510   25.3571   11.3718 H   0  0  0  0  0  0  0  0  0  0  0  0
    1.8787   22.2475   10.2567 H   0  0  0  0  0  0  0  0  0  0  0  0
    1.0763   23.6025   11.6781 H   0  0  0  0  0  0  0  0  0  0  0  0
    1.4749   22.2060    7.8463 H   0  0  0  0  0  0  0  0  0  0  0  0
    1.5964   21.6527    6.1271 H   0  0  0  0  0  0  0  0  0  0  0  0
    1.5756   21.8704    6.9526 H   0  0  0  0  0  0  0  0  0  0  0  0
    2.3741   20.7870    6.6838 H   0  0  0  0  0  0  0  0  0  0  0  0
    2.5537   20.0548    4.5128 H   0  0  0  0  0  0  0  0  0  0  0  0
    1.6030   20.9450    3.1058 H   0  0  0  0  0  0  0  0  0  0  0  0
    0.7533   21.8326    2.2454 H   0  0  0  0  0  0  0  0  0  0  0  0
   -0.4809   23.4157    2.2660 H   0  0  0  0  0  0  0  0  0  0  0  0
   -0.8702   24.0519    2.8637 H   0  0  0  0  0  0  0  0  0  0  0  0
   -1.2119   24.3828    2.4048 H   0  0  0  0  0  0  0  0  0  0  0  0
   -0.2808   23.4475    3.5090 H   0  0  0  0  0  0  0  0  0  0  0  0
   -1.7339   27.6648   13.7015 H   0  0  0  0  0  0  0  0  0  0  0  0
   -3.1389   28.3189    8.7638 H   0  0  0  0  0  0  0  0  0  0  0  0
   -4.2524   29.6496    8.3605 H   0  0  0  0  0  0  0  0  0  0  0  0
   -4.9460   30.0376    6.2041 H   0  0  0  0  0  0  0  0  0  0  0  0
   -4.3123   28.8875    4.7365 H   0  0  0  0  0  0  0  0  0  0  0  0
   -3.2266   26.9648    2.4283 H   0  0  0  0  0  0  0  0  0  0  0  0
   -4.0059   27.9234    2.2639 H   0  0  0  0  0  0  0  0  0  0  0  0
   -4.8583   29.3248    3.6091 H   0  0  0  0  0  0  0  0  0  0  0  0
   -3.0797   26.9873    3.3376 H   0  0  0  0  0  0  0  0  0  0  0  0
   -1.2151   25.0718    5.3647 H   0  0  0  0  0  0  0  0  0  0  0  0
   -1.3621   24.4997    2.0801 H   0  0  0  0  0  0  0  0  0  0  0  0
   -2.4563   25.9622    2.3532 H   0  0  0  0  0  0  0  0  0  0  0  0
   -0.7320   24.0434    3.5906 H   0  0  0  0  0  0  0  0  0  0  0  0
  1  2  2  3
  2  3  1  0
  3  4  1  0
  4  5  1  0
  5  6  1  0
  6  7  1  0
  7  8  1  0
  8  9  1  0
  9 10  1  0
 10 11  1  0
 11 12  1  0
 12 13  1  0
 13 14  1  0
 14 15  1  0
 15 16  1  0
 16 17  1  0
 17 18  1  0
 18 19  1  0
 19 20  1  0
 20 21  1  0
 21 22  1  0
 22 23  1  0
 14 24  1  0
 10 25  1  0
 25 26  1  0
 26 27  1  0
 27 28  1  0
 28 29  1  0
 29 30  1  0
 30 31  1  0
 31 32  1  0
 31 33  1  0
 33 34  1  0
 30 35  1  0
 23  3  1  0
 35 26  1  0
 22  5  1  0
 29 27  1  0
 33 30  1  0
 35  5  1  0
 11  7  1  0
 24 12  1  0
 35 27  1  0
 25  9  1  0
 21 16  1  0
 22 16  1  0
 19 17  1  0
  1 36  1  0
  1 37  1  0
  2 38  1  0
  3 39  1  0
  4 40  1  0
  4 41  1  0
  7 42  1  0
  8 43  1  0
  8 44  1  0
  9 45  1  0
 10 46  1  0
 11 47  1  0
 12 48  1  0
 13 49  1  0
 13 50  1  0
 14 51  1  0
 15 52  1  0
 17 53  1  0
 18 54  1  0
 18 55  1  0
 19 56  1  0
 20 57  1  0
 20 58  1  0
 21 59  1  0
 23 60  1  0
 23 61  1  0
 25 62  1  0
 26 63  1  0
 28 64  1  0
 28 65  1  0
 29 66  1  0
 31 67  1  0
 32 68  1  0
 32 69  1  0
 32 70  1  0
 33 71  1  0
 34 72  1  0
 34 73  1  0
 34 74  1  0
M  END
