
     RDKit          2D

 56 61  0  0  0  0  0  0  0  0999 V2000
   15.9392  -21.2980  -12.3364 C   0  0  0  0  0  0  0  0  0  0  0  0
   15.5851  -19.9055  -12.7671 C   0  0  0  0  0  0  0  0  0  0  0  0
   15.2309  -18.5130  -13.1979 C   0  0  0  0  0  0  0  0  0  0  0  0
   16.1566  -18.6405  -14.3713 C   0  0  0  0  0  0  0  0  0  0  0  0
   16.7812  -18.0547  -15.6028 C   0  0  0  0  0  0  0  0  0  0  0  0
   17.7599  -18.8614  -16.4036 C   0  0  0  0  0  0  0  0  0  0  0  0
   17.8764  -17.6253  -17.3710 C   0  0  0  0  0  0  0  0  0  0  0  0
   18.8622  -18.1089  -18.3929 C   0  0  0  0  0  0  0  0  0  0  0  0
   19.4439  -19.4870  -18.2805 C   0  0  0  0  0  0  0  0  0  0  0  0
   19.0397  -20.3814  -17.1463 C   0  0  0  0  0  0  0  0  0  0  0  0
   19.9447  -21.4563  -17.6714 C   0  0  0  0  0  0  0  0  0  0  0  0
   20.8978  -21.7047  -18.8028 C   0  0  0  0  0  0  0  0  0  0  0  0
   21.4529  -21.0104  -20.0110 C   0  0  0  0  0  0  0  0  0  0  0  0
   21.3504  -19.6984  -20.7308 C   0  0  0  0  0  0  0  0  0  0  0  0
   20.6383  -18.3824  -20.6253 C   0  0  0  0  0  0  0  0  0  0  0  0
   19.6496  -17.6784  -19.7438 C   0  0  0  0  0  0  0  0  0  0  0  0
   20.0005  -16.7229  -20.8456 C   0  0  0  0  0  0  0  0  0  0  0  0
   20.3513  -15.7674  -21.9475 Cl  0  0  0  0  0  0  0  0  0  0  0  0
   18.6856  -18.9889  -17.5770 C   0  0  0  0  0  0  0  0  0  0  0  0
   18.1141  -20.2539  -15.9729 C   0  0  0  0  0  0  0  0  0  0  0  0
   17.4895  -20.8397  -14.7413 C   0  0  0  0  0  0  0  0  0  0  0  0
   16.8649  -21.4255  -13.5098 C   0  0  0  0  0  0  0  0  0  0  0  0
   16.5107  -20.0330  -13.9405 C   0  0  0  0  0  0  0  0  0  0  0  0
   16.2933  -22.6905  -11.9057 H   0  0  0  0  0  0  0  0  0  0  0  0
   16.4627  -21.5425  -12.8856 H   0  0  0  0  0  0  0  0  0  0  0  0
   15.0122  -21.1710  -11.1639 H   0  0  0  0  0  0  0  0  0  0  0  0
   14.6593  -19.7780  -11.5937 H   0  0  0  0  0  0  0  0  0  0  0  0
   14.3052  -18.3854  -12.0245 H   0  0  0  0  0  0  0  0  0  0  0  0
   14.8768  -17.1205  -13.6286 H   0  0  0  0  0  0  0  0  0  0  0  0
   15.4815  -17.3017  -14.3310 H   0  0  0  0  0  0  0  0  0  0  0  0
   16.9883  -16.9563  -16.6031 H   0  0  0  0  0  0  0  0  0  0  0  0
   15.9800  -16.8174  -15.3250 H   0  0  0  0  0  0  0  0  0  0  0  0
   17.9467  -16.4171  -18.2573 H   0  0  0  0  0  0  0  0  0  0  0  0
   16.9516  -16.5987  -16.7872 H   0  0  0  0  0  0  0  0  0  0  0  0
   18.9151  -16.8886  -19.2636 H   0  0  0  0  0  0  0  0  0  0  0  0
   20.2649  -20.7008  -18.6007 H   0  0  0  0  0  0  0  0  0  0  0  0
   20.1332  -19.0140  -19.5260 H   0  0  0  0  0  0  0  0  0  0  0  0
   19.2980  -22.0049  -16.4341 H   0  0  0  0  0  0  0  0  0  0  0  0
   20.3730  -22.8545  -17.3375 H   0  0  0  0  0  0  0  0  0  0  0  0
   21.0060  -23.0195  -18.0891 H   0  0  0  0  0  0  0  0  0  0  0  0
   21.8004  -22.7847  -19.3213 H   0  0  0  0  0  0  0  0  0  0  0  0
   22.1691  -22.3236  -20.1238 H   0  0  0  0  0  0  0  0  0  0  0  0
   22.4075  -21.2669  -21.1393 H   0  0  0  0  0  0  0  0  0  0  0  0
   22.3394  -20.3954  -21.6174 H   0  0  0  0  0  0  0  0  0  0  0  0
   21.9103  -19.0112  -21.9408 H   0  0  0  0  0  0  0  0  0  0  0  0
   21.5028  -18.3068  -21.8487 H   0  0  0  0  0  0  0  0  0  0  0  0
   20.7831  -17.2310  -21.5756 H   0  0  0  0  0  0  0  0  0  0  0  0
   18.9415  -16.3597  -19.6456 H   0  0  0  0  0  0  0  0  0  0  0  0
   19.0698  -15.7037  -20.2582 H   0  0  0  0  0  0  0  0  0  0  0  0
   20.9883  -17.4806  -21.6822 H   0  0  0  0  0  0  0  0  0  0  0  0
   18.5660  -17.6687  -18.2789 H   0  0  0  0  0  0  0  0  0  0  0  0
   19.4981  -18.7757  -18.8197 H   0  0  0  0  0  0  0  0  0  0  0  0
   18.6957  -21.6320  -15.8605 H   0  0  0  0  0  0  0  0  0  0  0  0
   18.2590  -22.1094  -14.9550 H   0  0  0  0  0  0  0  0  0  0  0  0
   17.5143  -22.7777  -13.5064 H   0  0  0  0  0  0  0  0  0  0  0  0
   16.1633  -21.8755  -12.2626 H   0  0  0  0  0  0  0  0  0  0  0  0
  1  2  1  0
  2  3  1  0
  3  4  1  0
  4  5  1  0
  5  6  1  0
  6  7  1  0
  7  8  1  0
  8  9  1  0
  9 10  1  0
 10 11  1  0
 11 12  1  0
 12 13  1  0
 13 14  1  0
 14 15  1  0
 15 16  1  0
 16 17  1  0
 17 18  1  0
 10 19  1  0
 10 20  1  0
 20 21  1  0
 21 22  1  0
 22 23  1  0
 23  2  1  0
 23  4  1  0
 19  6  1  0
 23 21  1  0
 20  6  1  0
 16  8  1  0
  1 24  1  0
  1 25  1  0
  1 26  1  0
  2 27  1  0
  3 28  1  0
  3 29  1  0
  4 30  1  0
  5 31  1  0
  5 32  1  0
  7 33  1  0
  7 34  1  0
  8 35  1  0
  9 36  1  0
  9 37  1  0
 11 38  1  0
 11 39  1  0
 12 40  1  0
 12 41  1  0
 13 42  1  0
 13 43  1  0
 14 44  1  0
 14 45  1  0
 15 46  1  0
 15 47  1  0
 16 48  1  0
 17 49  1  0
 17 50  1  0
 19 51  1  0
 19 52  1  0
 20 53  1  0
 21 54  1  0
 22 55  1  0
 22 56  1  0
M  END
