
     RDKit          2D

 79 83  0  0  0  0  0  0  0  0999 V2000
   -2.5596   31.1588    7.4861 C   0  0  0  0  0  0  0  0  0  0  0  0
   -2.7986   29.9788    6.5914 C   0  0  0  0  0  0  0  0  0  0  0  0
   -4.1271   30.2430    5.9469 C   0  0  0  0  0  0  0  0  0  0  0  0
   -5.2233   29.8257    5.0120 C   0  0  0  0  0  0  0  0  0  0  0  0
   -5.7936   28.8386    4.0371 C   0  0  0  0  0  0  0  0  0  0  0  0
   -5.6852   27.5461    3.2837 C   0  0  0  0  0  0  0  0  0  0  0  0
   -6.9706   28.2365    2.9357 O   0  0  0  0  0  0  0  0  0  0  0  0
   -7.9185   27.6082    1.9576 Si  0  0  0  0  0  4  0  0  0  0  0  0
   -7.0543   26.6745    1.1632 Br  0  0  0  0  0  0  0  0  0  0  0  0
   -8.8665   26.9799    0.9795 C   0  0  0  0  0  0  0  0  0  0  0  0
   -9.8144   26.3516    0.0015 C   0  0  0  0  0  0  0  0  0  0  0  0
   -4.9271   26.2947    2.9534 C   0  0  0  0  0  0  0  0  0  0  0  0
   -3.7224   25.4194    3.1348 C   0  0  0  0  0  0  0  0  0  0  0  0
   -2.3940   25.1552    3.7794 C   0  0  0  0  0  0  0  0  0  0  0  0
   -1.2978   25.5725    4.7143 N   0  0  0  0  0  0  0  0  0  0  0  0
   -0.7274   26.5596    5.6891 C   0  0  0  0  0  0  0  0  0  0  0  0
    0.2095   25.3996    5.5262 C   0  0  0  0  0  0  0  0  0  0  0  0
    1.1464   24.2397    5.3633 C   0  0  0  0  0  0  0  0  0  0  0  0
    2.0834   23.0796    5.2004 C   0  0  0  0  0  0  0  0  0  0  0  0
    1.0213   22.6081    4.2520 C   0  0  0  0  0  0  0  0  0  0  0  0
    2.2496   21.7769    4.4757 C   0  0  0  0  0  0  0  0  0  0  0  0
    3.3023   20.7088    4.4419 C   0  0  0  0  0  0  0  0  0  0  0  0
    4.6247   20.5012    5.1187 Se  0  0  0  0  0  2  0  0  0  0  0  0
    5.4422   21.2755    6.1097 O   0  0  0  0  0  0  0  0  0  0  0  0
    5.2760   22.5783    6.8344 C   0  0  0  0  0  0  0  0  0  0  0  0
    4.4738   24.8212    7.7665 C   0  0  0  0  0  0  0  0  0  0  0  0
    3.3063   25.7549    7.6449 C   0  0  0  0  0  0  0  0  0  0  0  0
    2.3341   25.1572    6.6714 C   0  0  0  0  0  0  0  0  0  0  0  0
    2.9009   23.8540    6.1914 C   0  0  0  0  0  0  0  0  0  0  0  0
    4.2234   23.6463    6.8682 C   0  0  0  0  0  0  0  0  0  0  0  0
    5.4704   23.7485    7.6954 C   0  0  0  0  0  0  0  0  0  0  0  0
   -0.8359   27.8522    6.4426 C   0  0  0  0  0  0  0  0  0  0  0  0
   -1.5940   29.1036    6.7728 C   0  0  0  0  0  0  0  0  0  0  0  0
   -3.5755   32.2596    7.5631 H   0  0  0  0  0  0  0  0  0  0  0  0
   -1.3045   31.2380    8.3037 H   0  0  0  0  0  0  0  0  0  0  0  0
   -3.7747   31.3672    6.8753 H   0  0  0  0  0  0  0  0  0  0  0  0
   -4.9251   31.1547    6.0372 H   0  0  0  0  0  0  0  0  0  0  0  0
   -5.6219   30.8894    5.4429 H   0  0  0  0  0  0  0  0  0  0  0  0
   -6.2780   30.3366    4.6911 H   0  0  0  0  0  0  0  0  0  0  0  0
   -6.6405   29.7091    4.0716 H   0  0  0  0  0  0  0  0  0  0  0  0
   -6.7485   28.9318    3.5125 H   0  0  0  0  0  0  0  0  0  0  0  0
   -6.3096   26.8817    2.4805 H   0  0  0  0  0  0  0  0  0  0  0  0
   -9.0456   28.4139    2.5325 H   0  0  0  0  0  0  0  0  0  0  0  0
   -7.9368   25.8124    0.8285 H   0  0  0  0  0  0  0  0  0  0  0  0
   -9.7961   28.1474    1.1306 H   0  0  0  0  0  0  0  0  0  0  0  0
  -10.7623   25.7233   -0.9767 H   0  0  0  0  0  0  0  0  0  0  0  0
   -8.8929   25.1761   -0.1366 H   0  0  0  0  0  0  0  0  0  0  0  0
  -10.7360   27.5271    0.1394 H   0  0  0  0  0  0  0  0  0  0  0  0
   -5.8744   26.0644    2.2282 H   0  0  0  0  0  0  0  0  0  0  0  0
   -5.1577   25.3561    2.2171 H   0  0  0  0  0  0  0  0  0  0  0  0
   -4.3921   24.7998    2.3324 H   0  0  0  0  0  0  0  0  0  0  0  0
   -3.3948   24.3512    2.6576 H   0  0  0  0  0  0  0  0  0  0  0  0
   -2.5505   24.1832    3.0673 H   0  0  0  0  0  0  0  0  0  0  0  0
   -1.3067   24.1218    3.7888 H   0  0  0  0  0  0  0  0  0  0  0  0
   -0.5207   24.3285    4.4004 H   0  0  0  0  0  0  0  0  0  0  0  0
    0.3013   26.5865    6.3351 H   0  0  0  0  0  0  0  0  0  0  0  0
    0.8790   26.0192    6.3288 H   0  0  0  0  0  0  0  0  0  0  0  0
   -0.6171   24.6348    4.5353 H   0  0  0  0  0  0  0  0  0  0  0  0
    1.8445   25.1352    6.3435 H   0  0  0  0  0  0  0  0  0  0  0  0
    0.0862   23.7521    4.4208 H   0  0  0  0  0  0  0  0  0  0  0  0
   -0.1463   23.5419    4.1303 H   0  0  0  0  0  0  0  0  0  0  0  0
    0.2986   21.7436    3.2618 H   0  0  0  0  0  0  0  0  0  0  0  0
    1.5765   20.8697    3.4888 H   0  0  0  0  0  0  0  0  0  0  0  0
    3.8052   19.3967    3.9171 H   0  0  0  0  0  0  0  0  0  0  0  0
    2.2402   20.2373    3.4935 H   0  0  0  0  0  0  0  0  0  0  0  0
    6.5059   22.7263    7.6802 H   0  0  0  0  0  0  0  0  0  0  0  0
    5.6021   25.1835    8.6861 H   0  0  0  0  0  0  0  0  0  0  0  0
    4.0676   26.5841    8.6363 H   0  0  0  0  0  0  0  0  0  0  0  0
    2.2978   26.8621    7.7306 H   0  0  0  0  0  0  0  0  0  0  0  0
    1.6644   26.4375    7.0740 H   0  0  0  0  0  0  0  0  0  0  0  0
    1.0222   25.2965    5.9577 H   0  0  0  0  0  0  0  0  0  0  0  0
    1.6040   24.5049    5.8113 H   0  0  0  0  0  0  0  0  0  0  0  0
    6.7175   23.8507    8.5227 H   0  0  0  0  0  0  0  0  0  0  0  0
    6.3540   22.5546    7.4857 H   0  0  0  0  0  0  0  0  0  0  0  0
    5.4808   25.0156    8.4982 H   0  0  0  0  0  0  0  0  0  0  0  0
    0.4829   27.3039    6.9012 H   0  0  0  0  0  0  0  0  0  0  0  0
    0.0618   28.5402    7.4279 H   0  0  0  0  0  0  0  0  0  0  0  0
   -0.3554   29.2288    7.6096 H   0  0  0  0  0  0  0  0  0  0  0  0
   -1.4701   30.3305    7.6268 H   0  0  0  0  0  0  0  0  0  0  0  0
  1  2  2  3
  2  3  1  0
  3  4  1  0
  4  5  1  0
  5  6  1  0
  6  7  1  0
  7  8  1  0
  8  9  1  0
  8 10  1  0
 10 11  1  0
  6 12  1  0
 12 13  1  0
 13 14  1  0
 14 15  1  0
 15 16  1  0
 16 17  1  0
 17 18  1  0
 18 19  1  0
 19 20  1  0
 20 21  1  0
 21 22  1  0
 22 23  1  0
 23 24  1  0
 24 25  1  0
 25 26  1  0
 26 27  1  0
 27 28  1  0
 28 29  1  0
 29 30  1  0
 30 31  1  0
 16 32  1  0
 32 33  1  0
 33  2  1  0
 21 19  1  0
 30 25  1  0
 29 19  1  0
 30 26  1  0
  1 34  1  0
  1 35  1  0
  3 36  1  0
  3 37  1  0
  4 38  1  0
  4 39  1  0
  5 40  1  0
  5 41  1  0
  6 42  1  0
  8 43  1  0
 10 44  1  0
 10 45  1  0
 11 46  1  0
 11 47  1  0
 11 48  1  0
 12 49  1  0
 12 50  1  0
 13 51  1  0
 13 52  1  0
 14 53  1  0
 14 54  1  0
 15 55  1  0
 16 56  1  0
 17 57  1  0
 17 58  1  0
 18 59  1  0
 18 60  1  0
 20 61  1  0
 20 62  1  0
 21 63  1  0
 22 64  1  0
 22 65  1  0
 25 66  1  0
 26 67  1  0
 27 68  1  0
 27 69  1  0
 28 70  1  0
 28 71  1  0
 29 72  1  0
 31 73  1  0
 31 74  1  0
 31 75  1  0
 32 76  1  0
 32 77  1  0
 33 78  1  0
 33 79  1  0
M  END
