
     RDKit          2D

 24 25  0  0  0  0  0  0  0  0999 V2000
   17.5474  -21.0402   -9.5333 O   0  0  0  0  0  0  0  0  0  0  0  0
   16.1921  -21.4067   -9.0053 C   0  0  0  0  0  0  0  0  0  0  0  0
   15.2338  -22.4402   -8.4920 C   0  0  0  0  0  0  0  0  0  0  0  0
   13.8131  -22.4234   -8.0109 C   0  0  0  0  0  0  0  0  0  0  0  0
   13.1593  -20.9380   -8.0563 N   0  0  0  0  0  0  0  0  0  0  0  0
   14.3474  -20.6684   -8.5099 C   0  0  0  0  0  0  0  0  0  0  0  0
   14.8585  -20.1172   -8.7836 C   0  0  0  0  0  0  0  0  0  0  0  0
   15.0759  -18.8709   -9.0827 C   0  0  0  0  0  0  0  0  0  0  0  0
   13.6868  -18.4720   -8.6813 O   0  0  0  0  0  0  0  0  0  0  0  0
   12.7285  -19.5056   -8.1681 C   0  0  0  0  0  0  0  0  0  0  0  0
   16.1267  -19.9282   -9.2499 O   0  0  0  0  0  0  0  0  0  0  0  0
   18.5982  -22.0976   -9.7005 H   0  0  0  0  0  0  0  0  0  0  0  0
   17.0993  -22.5975   -9.0994 H   0  0  0  0  0  0  0  0  0  0  0  0
   16.4077  -23.3435   -8.7290 H   0  0  0  0  0  0  0  0  0  0  0  0
   15.1008  -23.9020   -8.1828 H   0  0  0  0  0  0  0  0  0  0  0  0
   14.0755  -23.8898   -7.8355 H   0  0  0  0  0  0  0  0  0  0  0  0
   12.6155  -23.1481   -7.4719 H   0  0  0  0  0  0  0  0  0  0  0  0
   15.3649  -21.4649   -8.7128 H   0  0  0  0  0  0  0  0  0  0  0  0
   14.3443  -21.7932   -8.3057 H   0  0  0  0  0  0  0  0  0  0  0  0
   16.1906  -20.0651   -9.2470 H   0  0  0  0  0  0  0  0  0  0  0  0
   16.0769  -21.6896   -8.9149 H   0  0  0  0  0  0  0  0  0  0  0  0
   16.0342  -17.8373   -9.5960 H   0  0  0  0  0  0  0  0  0  0  0  0
   11.4686  -20.1152   -7.6286 H   0  0  0  0  0  0  0  0  0  0  0  0
   11.8600  -18.2849   -8.0926 H   0  0  0  0  0  0  0  0  0  0  0  0
  1  2  1  0
  2  3  1  0
  3  4  1  0
  4  5  1  0
  5  6  1  0
  6  7  1  0
  7  8  1  0
  8  9  1  0
  9 10  1  0
  8 11  1  0
 11  2  1  0
 10  5  1  0
  1 12  1  0
  2 13  1  0
  3 14  1  0
  3 15  1  0
  4 16  1  0
  4 17  1  0
  6 18  1  0
  6 19  1  0
  7 20  1  0
  7 21  1  0
  8 22  1  0
 10 23  1  0
 10 24  1  0
M  END
