
     RDKit          2D

 94 97  0  0  0  0  0  0  0  0999 V2000
   15.6751  -25.2254   -2.1170 C   0  0  0  0  0  0  0  0  0  0  0  0
   16.0864  -23.7996   -1.8977 C   0  0  0  0  0  0  0  0  0  0  0  0
   15.5721  -23.0452   -0.7077 C   0  0  0  0  0  0  0  0  0  0  0  0
   16.3486  -21.8362   -1.1385 C   0  0  0  0  0  0  0  0  0  0  0  0
   14.7956  -24.2541   -0.2768 C   0  0  0  0  0  0  0  0  0  0  0  0
   14.2813  -23.4997    0.9133 C   0  0  0  0  0  0  0  0  0  0  0  0
   15.0578  -22.2908    0.4825 C   0  0  0  0  0  0  0  0  0  0  0  0
   17.0120  -23.1283   -2.8686 C   0  0  0  0  0  0  0  0  0  0  0  0
   16.9540  -21.8702   -2.0539 N   0  0  0  0  0  0  0  0  0  0  0  0
   17.9376  -22.4569   -3.8394 C   0  0  0  0  0  0  0  0  0  0  0  0
   18.8632  -21.7857   -4.8104 C   0  0  0  0  0  0  0  0  0  0  0  0
   19.7888  -21.1144   -5.7813 C   0  0  0  0  0  0  0  0  0  0  0  0
   18.8048  -20.5274   -3.9959 C   0  0  0  0  0  0  0  0  0  0  0  0
   19.7055  -19.6474   -4.8112 C   0  0  0  0  0  0  0  0  0  0  0  0
   20.3764  -18.3241   -5.0319 C   0  0  0  0  0  0  0  0  0  0  0  0
   21.0473  -17.0008   -5.2525 C   0  0  0  0  0  0  0  0  0  0  0  0
   21.7182  -15.6775   -5.4731 C   0  0  0  0  0  0  0  0  0  0  0  0
   21.3187  -17.3764   -6.6792 S   0  0  0  0  0  0  0  0  0  0  0  0
   19.7373  -17.7919   -3.7836 C   0  0  0  0  0  0  0  0  0  0  0  0
   19.0981  -17.2598   -2.5353 N   0  0  0  0  0  0  0  0  0  0  0  0
   18.1976  -18.1397   -1.7199 C   0  0  0  0  0  0  0  0  0  0  0  0
   19.3594  -15.8475   -2.1022 C   0  0  0  0  0  0  0  0  0  0  0  0
   20.2484  -15.6468   -3.2937 C   0  0  0  0  0  0  0  0  0  0  0  0
   21.1372  -15.4460   -4.4851 C   0  0  0  0  0  0  0  0  0  0  0  0
   18.4705  -16.0484   -0.9108 C   0  0  0  0  0  0  0  0  0  0  0  0
   17.5816  -16.2491    0.2807 C   0  0  0  0  0  0  0  0  0  0  0  0
   18.7279  -14.6346   -0.4806 C   0  0  0  0  0  0  0  0  0  0  0  0
   17.8768  -14.6615    0.7543 I   0  0  0  0  0  0  0  0  0  0  0  0
   18.9852  -13.2209   -0.0503 C   0  0  0  0  0  0  0  0  0  0  0  0
   19.2424  -11.8072    0.3801 N   0  0  0  0  0  0  0  0  0  0  0  0
   19.0663  -19.1153   -3.5629 C   0  0  0  0  0  0  0  0  0  0  0  0
   17.0700  -24.3865   -3.6833 C   0  0  0  0  0  0  0  0  0  0  0  0
   17.1279  -25.6446   -4.4980 C   0  0  0  0  0  0  0  0  0  0  0  0
   16.2008  -26.3153   -3.5282 C   0  0  0  0  0  0  0  0  0  0  0  0
   18.0550  -24.9739   -5.4678 O   0  0  0  0  0  0  0  0  0  0  0  0
   18.1130  -26.2320   -6.2825 C   0  0  0  0  0  0  0  0  0  0  0  0
   17.1858  -26.9027   -5.3127 C   0  0  0  0  0  0  0  0  0  0  0  0
   16.2587  -27.5734   -4.3429 O   0  0  0  0  0  0  0  0  0  0  0  0
   14.7495  -25.8967   -1.1460 H   0  0  0  0  0  0  0  0  0  0  0  0
   15.8799  -25.8979   -2.8056 H   0  0  0  0  0  0  0  0  0  0  0  0
   17.1250  -20.6273   -1.5692 H   0  0  0  0  0  0  0  0  0  0  0  0
   16.8070  -21.7952   -1.7894 H   0  0  0  0  0  0  0  0  0  0  0  0
   17.1023  -22.1053   -2.4071 H   0  0  0  0  0  0  0  0  0  0  0  0
   14.0191  -25.4631    0.1540 H   0  0  0  0  0  0  0  0  0  0  0  0
   15.1067  -25.2787   -1.3272 H   0  0  0  0  0  0  0  0  0  0  0  0
   13.7670  -22.7453    2.1033 H   0  0  0  0  0  0  0  0  0  0  0  0
   13.5049  -24.7086    1.3441 H   0  0  0  0  0  0  0  0  0  0  0  0
   15.8343  -21.0818    0.0516 H   0  0  0  0  0  0  0  0  0  0  0  0
   14.5435  -21.5363    1.6726 H   0  0  0  0  0  0  0  0  0  0  0  0
   16.2461  -21.4782   -0.7909 H   0  0  0  0  0  0  0  0  0  0  0  0
   17.5815  -20.5140   -2.1850 H   0  0  0  0  0  0  0  0  0  0  0  0
   17.8781  -21.1983   -3.0259 H   0  0  0  0  0  0  0  0  0  0  0  0
   18.2193  -23.5160   -4.8638 H   0  0  0  0  0  0  0  0  0  0  0  0
   18.9216  -23.0440   -5.6248 H   0  0  0  0  0  0  0  0  0  0  0  0
   20.7144  -20.4430   -6.7521 H   0  0  0  0  0  0  0  0  0  0  0  0
   19.8460  -22.3723   -6.5965 H   0  0  0  0  0  0  0  0  0  0  0  0
   19.9573  -19.7315   -5.2252 H   0  0  0  0  0  0  0  0  0  0  0  0
   17.9363  -20.6291   -2.7772 H   0  0  0  0  0  0  0  0  0  0  0  0
   20.3328  -20.2026   -6.0555 H   0  0  0  0  0  0  0  0  0  0  0  0
   21.0155  -18.8563   -6.2802 H   0  0  0  0  0  0  0  0  0  0  0  0
   20.7759  -16.6253   -3.8258 H   0  0  0  0  0  0  0  0  0  0  0  0
   22.3892  -14.3542   -5.6938 H   0  0  0  0  0  0  0  0  0  0  0  0
   22.0707  -15.8895   -6.9157 H   0  0  0  0  0  0  0  0  0  0  0  0
   21.6160  -14.9924   -4.1426 H   0  0  0  0  0  0  0  0  0  0  0  0
   22.0273  -16.5498   -7.7110 H   0  0  0  0  0  0  0  0  0  0  0  0
   20.4082  -16.4686   -4.0042 H   0  0  0  0  0  0  0  0  0  0  0  0
   17.2971  -19.0197   -0.9046 H   0  0  0  0  0  0  0  0  0  0  0  0
   17.8721  -17.1330   -0.6565 H   0  0  0  0  0  0  0  0  0  0  0  0
   18.3036  -19.3609   -2.5844 H   0  0  0  0  0  0  0  0  0  0  0  0
   19.7272  -14.4215   -1.8177 H   0  0  0  0  0  0  0  0  0  0  0  0
   20.5125  -14.2357   -2.8588 H   0  0  0  0  0  0  0  0  0  0  0  0
   20.2071  -16.9673   -4.0039 H   0  0  0  0  0  0  0  0  0  0  0  0
   22.0623  -14.9092   -5.5368 H   0  0  0  0  0  0  0  0  0  0  0  0
   21.3960  -14.0328   -4.0540 H   0  0  0  0  0  0  0  0  0  0  0  0
   21.1013  -16.7686   -5.1918 H   0  0  0  0  0  0  0  0  0  0  0  0
   17.9117  -17.4401   -0.8854 H   0  0  0  0  0  0  0  0  0  0  0  0
   16.6927  -16.4499    1.4721 H   0  0  0  0  0  0  0  0  0  0  0  0
   17.7454  -14.8771    0.8642 H   0  0  0  0  0  0  0  0  0  0  0  0
   17.3075  -17.6562   -0.1611 H   0  0  0  0  0  0  0  0  0  0  0  0
   19.6417  -14.2631   -1.6105 H   0  0  0  0  0  0  0  0  0  0  0  0
   19.8762  -13.0208   -1.2402 H   0  0  0  0  0  0  0  0  0  0  0  0
   18.0942  -13.4211    1.1397 H   0  0  0  0  0  0  0  0  0  0  0  0
   20.3934  -11.4982    1.2910 H   0  0  0  0  0  0  0  0  0  0  0  0
   18.3487  -10.7025   -0.1004 H   0  0  0  0  0  0  0  0  0  0  0  0
   18.2224  -19.1176   -2.3228 H   0  0  0  0  0  0  0  0  0  0  0  0
   17.9975  -23.7159   -4.6528 H   0  0  0  0  0  0  0  0  0  0  0  0
   17.9840  -24.0403   -4.8212 H   0  0  0  0  0  0  0  0  0  0  0  0
   15.2736  -26.9860   -2.5583 H   0  0  0  0  0  0  0  0  0  0  0  0
   16.0847  -27.7177   -4.0476 H   0  0  0  0  0  0  0  0  0  0  0  0
   15.8681  -25.2375   -2.5394 H   0  0  0  0  0  0  0  0  0  0  0  0
   18.1710  -27.4902   -7.0972 H   0  0  0  0  0  0  0  0  0  0  0  0
   19.0401  -25.5614   -7.2524 H   0  0  0  0  0  0  0  0  0  0  0  0
   17.2438  -28.1609   -6.1274 H   0  0  0  0  0  0  0  0  0  0  0  0
   15.7461  -26.8199   -3.1515 H   0  0  0  0  0  0  0  0  0  0  0  0
  1  2  2  3
  2  3  1  0
  3  4  1  0
  3  5  1  0
  5  6  1  0
  6  7  1  0
  2  8  1  0
  8  9  1  0
  8 10  1  0
 10 11  1  0
 11 12  1  0
 11 13  1  0
 13 14  1  0
 14 15  1  0
 15 16  1  0
 16 17  1  0
 16 18  1  0
 15 19  1  0
 19 20  1  0
 20 21  1  0
 20 22  1  0
 22 23  1  0
 23 24  1  0
 22 25  1  0
 25 26  1  0
 25 27  1  0
 27 28  1  0
 27 29  1  0
 29 30  1  0
 19 31  1  0
  8 32  1  0
 32 33  1  0
 33 34  1  0
 33 35  1  0
 35 36  1  0
 36 37  1  0
 37 38  1  0
  7  3  1  0
 31 13  1  0
 37 33  1  0
 31 14  1  0
  1 39  1  0
  1 40  1  0
  4 41  1  0
  4 42  1  0
  4 43  1  0
  5 44  1  0
  5 45  1  0
  6 46  1  0
  6 47  1  0
  7 48  1  0
  7 49  1  0
  9 50  1  0
  9 51  1  0
 10 52  1  0
 10 53  1  0
 11 54  1  0
 12 55  1  0
 12 56  1  0
 12 57  1  0
 13 58  1  0
 14 59  1  0
 15 60  1  0
 16 61  1  0
 17 62  1  0
 17 63  1  0
 17 64  1  0
 18 65  1  0
 19 66  1  0
 21 67  1  0
 21 68  1  0
 21 69  1  0
 22 70  1  0
 23 71  1  0
 23 72  1  0
 24 73  1  0
 24 74  1  0
 24 75  1  0
 25 76  1  0
 26 77  1  0
 26 78  1  0
 26 79  1  0
 27 80  1  0
 29 81  1  0
 29 82  1  0
 30 83  1  0
 30 84  1  0
 31 85  1  0
 32 86  1  0
 32 87  1  0
 34 88  1  0
 34 89  1  0
 34 90  1  0
 36 91  1  0
 36 92  1  0
 37 93  1  0
 38 94  1  0
M  END
