
     RDKit          2D

 79 83  0  0  0  0  0  0  0  0999 V2000
   16.2613  -25.3929   -3.5986 C   0  0  0  0  0  0  0  0  0  0  0  0
   15.5218  -24.3025   -4.3159 C   0  0  0  0  0  0  0  0  0  0  0  0
   14.7824  -23.2123   -5.0332 C   0  0  0  0  0  0  0  0  0  0  0  0
   16.6642  -24.1605   -5.2775 C   0  0  0  0  0  0  0  0  0  0  0  0
   17.6007  -25.1931   -4.7237 N   0  0  0  0  0  0  0  0  0  0  0  0
   17.9942  -24.3943   -5.9307 C   0  0  0  0  0  0  0  0  0  0  0  0
   17.9163  -23.3935   -7.0453 C   0  0  0  0  0  0  0  0  0  0  0  0
   17.8385  -22.3927   -8.1600 C   0  0  0  0  0  0  0  0  0  0  0  0
   18.9810  -22.2507   -9.1215 C   0  0  0  0  0  0  0  0  0  0  0  0
   18.9031  -21.2500  -10.2362 C   0  0  0  0  0  0  0  0  0  0  0  0
   18.8253  -20.2491  -11.3509 O   0  0  0  0  0  0  0  0  0  0  0  0
   19.9678  -20.1072  -12.3124 C   0  0  0  0  0  0  0  0  0  0  0  0
   20.7159  -21.1831  -11.5826 C   0  0  0  0  0  0  0  0  0  0  0  0
   21.4639  -22.2591  -10.8527 C   0  0  0  0  0  0  0  0  0  0  0  0
   22.2120  -23.3351  -10.1228 C   0  0  0  0  0  0  0  0  0  0  0  0
   22.9599  -24.4111   -9.3930 C   0  0  0  0  0  0  0  0  0  0  0  0
   23.9294  -25.4336   -8.8786 C   0  0  0  0  0  0  0  0  0  0  0  0
   24.7858  -24.9644  -10.0172 C   0  0  0  0  0  0  0  0  0  0  0  0
   23.1155  -25.8877   -7.7871 C   0  0  0  0  0  0  0  0  0  0  0  0
   23.1110  -24.9070   -8.9221 C   0  0  0  0  0  0  0  0  0  0  0  0
   21.7445  -24.4416   -8.5145 C   0  0  0  0  0  0  0  0  0  0  0  0
   21.7491  -25.4223   -7.3795 C   0  0  0  0  0  0  0  0  0  0  0  0
   21.7536  -26.4031   -6.2445 C   0  0  0  0  0  0  0  0  0  0  0  0
   21.8571  -21.0433  -12.5459 O   0  0  0  0  0  0  0  0  0  0  0  0
   23.0754  -21.9052  -12.3955 O   0  0  0  0  0  0  0  0  0  0  0  0
   19.2197  -19.0312  -13.0422 C   0  0  0  0  0  0  0  0  0  0  0  0
   17.9637  -18.9859  -12.2235 C   0  0  0  0  0  0  0  0  0  0  0  0
   16.6232  -18.7162  -11.6068 C   0  0  0  0  0  0  0  0  0  0  0  0
   15.9568  -17.6328  -12.4019 C   0  0  0  0  0  0  0  0  0  0  0  0
   16.8854  -17.2330  -13.5099 C   0  0  0  0  0  0  0  0  0  0  0  0
   18.1257  -18.0693  -13.3998 C   0  0  0  0  0  0  0  0  0  0  0  0
   18.8256  -17.4684  -14.5826 C   0  0  0  0  0  0  0  0  0  0  0  0
   19.5255  -16.8675  -15.7654 Br  0  0  0  0  0  0  0  0  0  0  0  0
   17.0006  -26.4831   -2.8813 H   0  0  0  0  0  0  0  0  0  0  0  0
   15.1259  -25.5237   -2.6270 H   0  0  0  0  0  0  0  0  0  0  0  0
   17.1948  -25.4927   -4.1593 H   0  0  0  0  0  0  0  0  0  0  0  0
   14.3794  -24.4446   -3.3543 H   0  0  0  0  0  0  0  0  0  0  0  0
   14.0430  -22.1220   -5.7505 H   0  0  0  0  0  0  0  0  0  0  0  0
   13.6460  -23.3449   -4.0633 H   0  0  0  0  0  0  0  0  0  0  0  0
   15.3280  -22.9805   -5.6914 H   0  0  0  0  0  0  0  0  0  0  0  0
   16.2708  -23.3718   -5.9247 H   0  0  0  0  0  0  0  0  0  0  0  0
   17.9142  -26.2505   -3.7070 H   0  0  0  0  0  0  0  0  0  0  0  0
   19.3511  -24.9756   -6.1969 H   0  0  0  0  0  0  0  0  0  0  0  0
   16.5617  -22.7707   -6.8802 H   0  0  0  0  0  0  0  0  0  0  0  0
   19.2930  -23.7857   -7.4936 H   0  0  0  0  0  0  0  0  0  0  0  0
   16.6183  -21.5339   -8.3131 H   0  0  0  0  0  0  0  0  0  0  0  0
   20.2670  -23.0226   -9.1157 H   0  0  0  0  0  0  0  0  0  0  0  0
   19.6311  -21.5274  -10.4053 H   0  0  0  0  0  0  0  0  0  0  0  0
   17.5327  -20.8468   -9.7786 H   0  0  0  0  0  0  0  0  0  0  0  0
   21.1103  -19.9652  -13.2739 H   0  0  0  0  0  0  0  0  0  0  0  0
   20.2922  -21.4575  -10.9655 H   0  0  0  0  0  0  0  0  0  0  0  0
   20.5889  -22.0529   -9.6519 H   0  0  0  0  0  0  0  0  0  0  0  0
   22.4939  -22.7195  -11.8412 H   0  0  0  0  0  0  0  0  0  0  0  0
   23.3542  -23.1934  -11.0846 H   0  0  0  0  0  0  0  0  0  0  0  0
   20.9869  -23.3446   -9.2571 H   0  0  0  0  0  0  0  0  0  0  0  0
   23.9059  -24.0289  -10.4925 H   0  0  0  0  0  0  0  0  0  0  0  0
   25.0778  -26.3581   -8.6023 H   0  0  0  0  0  0  0  0  0  0  0  0
   25.6422  -24.4952  -11.1558 H   0  0  0  0  0  0  0  0  0  0  0  0
   25.8510  -25.9427   -9.6192 H   0  0  0  0  0  0  0  0  0  0  0  0
   23.9595  -23.9017  -10.6789 H   0  0  0  0  0  0  0  0  0  0  0  0
   24.0849  -26.9103   -7.2728 H   0  0  0  0  0  0  0  0  0  0  0  0
   22.9399  -23.8769   -9.9989 H   0  0  0  0  0  0  0  0  0  0  0  0
   24.4357  -25.1213   -9.5922 H   0  0  0  0  0  0  0  0  0  0  0  0
   20.7751  -23.4190   -9.0288 H   0  0  0  0  0  0  0  0  0  0  0  0
   20.3826  -24.9569   -6.9719 H   0  0  0  0  0  0  0  0  0  0  0  0
   21.7581  -27.3837   -5.1095 H   0  0  0  0  0  0  0  0  0  0  0  0
   20.3831  -25.9444   -5.8427 H   0  0  0  0  0  0  0  0  0  0  0  0
   23.1241  -26.8617   -6.6462 H   0  0  0  0  0  0  0  0  0  0  0  0
   24.2166  -21.7653  -13.3590 H   0  0  0  0  0  0  0  0  0  0  0  0
   20.3226  -18.8313  -14.0392 H   0  0  0  0  0  0  0  0  0  0  0  0
   18.0397  -19.9896  -11.1114 H   0  0  0  0  0  0  0  0  0  0  0  0
   17.0271  -19.7901  -10.6407 H   0  0  0  0  0  0  0  0  0  0  0  0
   15.3672  -18.6709  -10.7881 H   0  0  0  0  0  0  0  0  0  0  0  0
   14.8400  -17.8140  -11.4170 H   0  0  0  0  0  0  0  0  0  0  0  0
   15.0569  -16.5873  -12.9910 H   0  0  0  0  0  0  0  0  0  0  0  0
   15.7914  -16.2711  -13.8675 H   0  0  0  0  0  0  0  0  0  0  0  0
   17.4370  -16.5263  -14.7126 H   0  0  0  0  0  0  0  0  0  0  0  0
   20.1178  -18.2144  -14.4289 H   0  0  0  0  0  0  0  0  0  0  0  0
   17.7041  -16.5758  -15.0246 H   0  0  0  0  0  0  0  0  0  0  0  0
  1  2  1  0
  2  3  1  0
  2  4  1  0
  4  5  1  0
  5  6  1  0
  6  7  1  0
  7  8  1  0
  8  9  2  3
  9 10  1  0
 10 11  1  0
 11 12  1  0
 12 13  1  0
 13 14  1  0
 14 15  1  0
 15 16  1  0
 16 17  1  0
 17 18  1  0
 17 19  1  0
 19 20  1  0
 20 21  1  0
 21 22  1  0
 22 23  1  0
 13 24  1  0
 24 25  1  0
 12 26  1  0
 26 27  1  0
 27 28  1  0
 28 29  1  0
 29 30  1  0
 30 31  1  0
 31 32  1  6
 32 33  1  0
  6  4  1  0
 21 16  1  0
 31 26  1  0
 22 19  1  0
 31 27  1  0
  1 34  1  0
  1 35  1  0
  1 36  1  0
  2 37  1  0
  3 38  1  0
  3 39  1  0
  3 40  1  0
  4 41  1  1
  5 42  1  0
  6 43  1  6
  7 44  1  0
  7 45  1  0
  8 46  1  0
  9 47  1  0
 10 48  1  0
 10 49  1  0
 12 50  1  6
 13 51  1  6
 14 52  1  0
 14 53  1  0
 15 54  1  0
 15 55  1  0
 16 56  1  6
 17 57  1  6
 18 58  1  0
 18 59  1  0
 18 60  1  0
 19 61  1  6
 20 62  1  0
 20 63  1  0
 21 64  1  6
 22 65  1  1
 23 66  1  0
 23 67  1  0
 23 68  1  0
 25 69  1  0
 26 70  1  1
 27 71  1  6
 28 72  1  0
 28 73  1  0
 29 74  1  0
 29 75  1  0
 30 76  1  0
 30 77  1  0
 32 78  1  0
 32 79  1  0
M  END
