
     RDKit          2D

102115  0  0  0  0  0  0  0  0999 V2000
   21.1351  -14.9072  -16.6802 C   0  0  0  0  0  0  0  0  0  0  0  0
   20.6412  -16.2390  -16.1980 C   0  0  0  0  0  0  0  0  0  0  0  0
   20.1474  -17.5708  -15.7157 N   0  0  0  0  0  0  0  0  0  0  0  0
   19.9031  -17.0035  -14.3487 C   0  0  0  0  0  0  0  0  0  0  0  0
   20.4022  -15.6573  -14.8361 C   0  0  0  0  0  0  0  0  0  0  0  0
   20.1933  -15.5810  -14.0433 C   0  0  0  0  0  0  0  0  0  0  0  0
   19.8279  -15.5356  -12.7379 C   0  0  0  0  0  0  0  0  0  0  0  0
   19.5940  -15.5571  -11.9488 C   0  0  0  0  0  0  0  0  0  0  0  0
   19.0586  -16.2399  -10.7253 C   0  0  0  0  0  0  0  0  0  0  0  0
   18.5717  -17.5876  -10.2817 C   0  0  0  0  0  0  0  0  0  0  0  0
   18.0277  -18.6680   -9.3947 C   0  0  0  0  0  0  0  0  0  0  0  0
   17.5409  -20.0156   -8.9511 C   0  0  0  0  0  0  0  0  0  0  0  0
   17.0540  -21.3634   -8.5076 C   0  0  0  0  0  0  0  0  0  0  0  0
   16.5671  -22.7110   -8.0640 C   0  0  0  0  0  0  0  0  0  0  0  0
   16.0803  -24.0586   -7.6205 C   0  0  0  0  0  0  0  0  0  0  0  0
   15.5662  -25.3301   -7.0126 Cl  0  0  0  0  0  0  0  0  0  0  0  0
   16.7331  -23.2308   -9.4612 C   0  0  0  0  0  0  0  0  0  0  0  0
   16.9360  -21.9396  -10.1971 C   0  0  0  0  0  0  0  0  0  0  0  0
   16.5879  -24.7025   -9.2106 C   0  0  0  0  0  0  0  0  0  0  0  0
   16.5592  -26.1113   -9.7250 C   0  0  0  0  0  0  0  0  0  0  0  0
   16.3192  -26.9623   -8.5133 C   0  0  0  0  0  0  0  0  0  0  0  0
   16.6547  -27.0796  -10.8667 C   0  0  0  0  0  0  0  0  0  0  0  0
   16.8489  -27.3479  -12.3296 C   0  0  0  0  0  0  0  0  0  0  0  0
   16.8202  -28.7566  -12.8441 C   0  0  0  0  0  0  0  0  0  0  0  0
   16.5974  -29.8970  -11.8955 C   0  0  0  0  0  0  0  0  0  0  0  0
   16.4032  -29.6287  -10.4325 C   0  0  0  0  0  0  0  0  0  0  0  0
   16.4319  -28.2200   -9.9181 C   0  0  0  0  0  0  0  0  0  0  0  0
   16.8000  -25.6078  -11.1173 C   0  0  0  0  0  0  0  0  0  0  0  0
   17.0228  -24.4674  -12.0659 C   0  0  0  0  0  0  0  0  0  0  0  0
   17.1555  -25.2229  -13.3549 C   0  0  0  0  0  0  0  0  0  0  0  0
   17.3497  -25.4912  -14.8179 C   0  0  0  0  0  0  0  0  0  0  0  0
   17.3784  -24.0825  -14.3035 C   0  0  0  0  0  0  0  0  0  0  0  0
   16.8286  -24.1991  -10.6029 C   0  0  0  0  0  0  0  0  0  0  0  0
   18.3612  -18.9695  -10.8256 C   0  0  0  0  0  0  0  0  0  0  0  0
   17.8744  -20.3172  -10.3821 C   0  0  0  0  0  0  0  0  0  0  0  0
   18.5257  -19.7391  -12.1027 C   0  0  0  0  0  0  0  0  0  0  0  0
   18.5012  -20.8839  -13.0716 C   0  0  0  0  0  0  0  0  0  0  0  0
   18.9881  -19.5363  -13.5151 C   0  0  0  0  0  0  0  0  0  0  0  0
   19.5321  -18.4558  -14.4022 C   0  0  0  0  0  0  0  0  0  0  0  0
   19.9897  -16.7660  -14.4298 C   0  0  0  0  0  0  0  0  0  0  0  0
   20.3631  -14.4370  -13.5779 C   0  0  0  0  0  0  0  0  0  0  0  0
   20.5736  -13.0550  -13.0338 C   0  0  0  0  0  0  0  0  0  0  0  0
   20.0296  -14.1355  -12.1468 C   0  0  0  0  0  0  0  0  0  0  0  0
   19.9275  -15.8587  -13.3798 C   0  0  0  0  0  0  0  0  0  0  0  0
   21.6288  -13.5754  -17.1623 H   0  0  0  0  0  0  0  0  0  0  0  0
   21.3713  -15.4881  -18.0427 H   0  0  0  0  0  0  0  0  0  0  0  0
   21.0253  -14.0212  -15.4747 H   0  0  0  0  0  0  0  0  0  0  0  0
   20.8802  -16.8207  -17.5597 H   0  0  0  0  0  0  0  0  0  0  0  0
   20.0317  -18.8491  -16.4920 H   0  0  0  0  0  0  0  0  0  0  0  0
   20.9504  -14.6657  -15.8192 H   0  0  0  0  0  0  0  0  0  0  0  0
   20.9629  -12.9583  -14.2911 H   0  0  0  0  0  0  0  0  0  0  0  0
   21.0640  -13.6038  -15.2349 H   0  0  0  0  0  0  0  0  0  0  0  0
   19.9258  -13.6202  -11.3138 H   0  0  0  0  0  0  0  0  0  0  0  0
   20.6207  -13.0178  -13.1627 H   0  0  0  0  0  0  0  0  0  0  0  0
   19.3264  -14.8151  -10.3402 H   0  0  0  0  0  0  0  0  0  0  0  0
   18.7276  -15.9300   -9.2953 H   0  0  0  0  0  0  0  0  0  0  0  0
   18.3447  -16.9740   -8.9319 H   0  0  0  0  0  0  0  0  0  0  0  0
   17.8633  -17.8984   -8.1176 H   0  0  0  0  0  0  0  0  0  0  0  0
   17.2946  -19.4735   -7.5744 H   0  0  0  0  0  0  0  0  0  0  0  0
   17.7260  -20.7180  -10.2635 H   0  0  0  0  0  0  0  0  0  0  0  0
   16.7998  -20.8192   -7.1331 H   0  0  0  0  0  0  0  0  0  0  0  0
   17.3656  -21.7392   -9.9259 H   0  0  0  0  0  0  0  0  0  0  0  0
   16.4011  -22.1912   -6.6668 H   0  0  0  0  0  0  0  0  0  0  0  0
   15.8274  -23.5148   -6.2456 H   0  0  0  0  0  0  0  0  0  0  0  0
   16.2078  -24.9125   -8.8471 H   0  0  0  0  0  0  0  0  0  0  0  0
   17.1774  -21.1543  -11.4522 H   0  0  0  0  0  0  0  0  0  0  0  0
   17.0687  -22.6951  -11.4862 H   0  0  0  0  0  0  0  0  0  0  0  0
   16.8562  -20.8941   -9.1245 H   0  0  0  0  0  0  0  0  0  0  0  0
   16.3477  -25.1815   -7.8096 H   0  0  0  0  0  0  0  0  0  0  0  0
   16.0793  -27.8132   -7.3016 H   0  0  0  0  0  0  0  0  0  0  0  0
   16.2994  -28.3624   -9.0511 H   0  0  0  0  0  0  0  0  0  0  0  0
   16.2509  -25.8444   -7.5154 H   0  0  0  0  0  0  0  0  0  0  0  0
   17.0810  -27.0966  -13.7901 H   0  0  0  0  0  0  0  0  0  0  0  0
   16.9582  -25.8519  -12.3225 H   0  0  0  0  0  0  0  0  0  0  0  0
   16.8756  -29.9082  -13.8037 H   0  0  0  0  0  0  0  0  0  0  0  0
   17.0623  -28.0161  -14.1259 H   0  0  0  0  0  0  0  0  0  0  0  0
   16.4207  -31.2999  -11.3946 H   0  0  0  0  0  0  0  0  0  0  0  0
   16.7302  -30.6525  -13.1845 H   0  0  0  0  0  0  0  0  0  0  0  0
   16.1711  -29.8800   -8.9721 H   0  0  0  0  0  0  0  0  0  0  0  0
   16.2939  -31.1247  -10.4397 H   0  0  0  0  0  0  0  0  0  0  0  0
   16.3211  -27.3337   -8.7130 H   0  0  0  0  0  0  0  0  0  0  0  0
   16.1899  -28.9605   -8.6363 H   0  0  0  0  0  0  0  0  0  0  0  0
   17.1779  -23.0117  -12.3927 H   0  0  0  0  0  0  0  0  0  0  0  0
   16.9788  -26.6257  -12.8540 H   0  0  0  0  0  0  0  0  0  0  0  0
   17.2404  -26.9872  -14.8251 H   0  0  0  0  0  0  0  0  0  0  0  0
   17.5818  -25.2400  -16.2784 H   0  0  0  0  0  0  0  0  0  0  0  0
   17.6204  -23.3420  -15.5853 H   0  0  0  0  0  0  0  0  0  0  0  0
   17.3522  -22.8231  -13.4891 H   0  0  0  0  0  0  0  0  0  0  0  0
   17.3603  -21.5886   -9.7743 H   0  0  0  0  0  0  0  0  0  0  0  0
   18.0660  -21.0213  -11.6927 H   0  0  0  0  0  0  0  0  0  0  0  0
   17.5112  -20.1157   -8.9408 H   0  0  0  0  0  0  0  0  0  0  0  0
   18.0151  -21.0226  -11.5179 H   0  0  0  0  0  0  0  0  0  0  0  0
   17.9572  -21.9643  -12.1845 H   0  0  0  0  0  0  0  0  0  0  0  0
   18.6657  -21.6535  -14.3486 H   0  0  0  0  0  0  0  0  0  0  0  0
   19.1526  -20.3059  -14.7921 H   0  0  0  0  0  0  0  0  0  0  0  0
   19.7237  -19.1599  -15.7127 H   0  0  0  0  0  0  0  0  0  0  0  0
   20.3108  -17.6803  -16.3817 H   0  0  0  0  0  0  0  0  0  0  0  0
   20.5483  -15.8734  -15.5402 H   0  0  0  0  0  0  0  0  0  0  0  0
   21.1196  -12.2210  -14.1546 H   0  0  0  0  0  0  0  0  0  0  0  0
   20.5980  -11.9103  -12.0649 H   0  0  0  0  0  0  0  0  0  0  0  0
   19.7599  -13.6390  -10.7573 H   0  0  0  0  0  0  0  0  0  0  0  0
   19.4205  -17.1538  -12.8181 H   0  0  0  0  0  0  0  0  0  0  0  0
  1  2  1  0
  2  3  1  0
  3  4  1  0
  4  5  1  0
  5  6  1  0
  6  7  1  0
  7  8  1  0
  8  9  1  0
  9 10  1  0
 10 11  1  0
 11 12  1  0
 12 13  1  0
 13 14  1  0
 14 15  1  0
 15 16  1  0
 14 17  1  0
 17 18  1  0
 17 19  1  0
 19 20  1  0
 20 21  1  0
 20 22  1  0
 22 23  1  0
 23 24  1  0
 24 25  1  0
 25 26  1  0
 26 27  1  0
 22 28  1  0
 28 29  1  0
 29 30  1  0
 30 31  1  0
 31 32  1  0
 29 33  1  0
 11 34  1  0
 34 35  1  0
 34 36  1  0
 36 37  1  0
 37 38  1  0
 38 39  1  0
 39 40  1  0
 40 41  1  0
 41 42  1  0
 42 43  1  0
 41 44  1  0
  5  2  1  0
 43  8  1  0
 39  4  1  0
 43 41  1  0
 44  4  1  0
 44  8  1  0
 34 10  1  0
 38 36  1  0
 33 17  1  0
 33 19  1  0
 28 20  1  0
 32 30  1  0
 27 22  1  0
 33 28  1  0
  1 45  1  0
  1 46  1  0
  1 47  1  0
  2 48  1  0
  3 49  1  0
  5 50  1  0
  6 51  1  0
  6 52  1  0
  7 53  1  0
  7 54  1  0
  9 55  1  0
  9 56  1  0
 10 57  1  0
 11 58  1  0
 12 59  1  0
 12 60  1  0
 13 61  1  0
 13 62  1  0
 14 63  1  0
 15 64  1  0
 15 65  1  0
 18 66  1  0
 18 67  1  0
 18 68  1  0
 19 69  1  0
 21 70  1  0
 21 71  1  0
 21 72  1  0
 23 73  1  0
 23 74  1  0
 24 75  1  0
 24 76  1  0
 25 77  1  0
 25 78  1  0
 26 79  1  0
 26 80  1  0
 27 81  1  0
 27 82  1  0
 29 83  1  0
 30 84  1  0
 31 85  1  0
 31 86  1  0
 32 87  1  0
 32 88  1  0
 35 89  1  0
 35 90  1  0
 35 91  1  0
 36 92  1  0
 37 93  1  0
 37 94  1  0
 38 95  1  0
 39 96  1  0
 40 97  1  0
 40 98  1  0
 42 99  1  0
 42100  1  0
 43101  1  0
 44102  1  0
M  END
