
     RDKit          2D

 21 23  0  0  0  0  0  0  0  0999 V2000
   14.7803  -21.1712   -5.4994 O   0  0  0  0  0  0  0  0  0  0  0  0
   14.3752  -22.0107   -6.6746 O   0  0  0  0  0  0  0  0  0  0  0  0
   14.9229  -21.7070   -8.0376 C   0  0  0  0  0  0  0  0  0  0  0  0
   15.4707  -21.4034   -9.4006 C   0  0  0  0  0  0  0  0  0  0  0  0
   16.0184  -21.0999  -10.7636 C   0  0  0  0  0  0  0  0  0  0  0  0
   16.5662  -20.7963  -12.1266 C   0  0  0  0  0  0  0  0  0  0  0  0
   17.1139  -20.4927  -13.4897 O   0  0  0  0  0  0  0  0  0  0  0  0
   17.9127  -19.3599  -12.9164 C   0  0  0  0  0  0  0  0  0  0  0  0
   18.8784  -18.2271  -13.1014 O   0  0  0  0  0  0  0  0  0  0  0  0
   18.3307  -18.5307  -11.7384 C   0  0  0  0  0  0  0  0  0  0  0  0
   17.3650  -19.6635  -11.5533 C   0  0  0  0  0  0  0  0  0  0  0  0
   14.2325  -21.4748   -4.1364 H   0  0  0  0  0  0  0  0  0  0  0  0
   14.1395  -22.8521   -8.6075 H   0  0  0  0  0  0  0  0  0  0  0  0
   15.7065  -20.5619   -7.4676 H   0  0  0  0  0  0  0  0  0  0  0  0
   16.2706  -20.2715   -8.8271 H   0  0  0  0  0  0  0  0  0  0  0  0
   14.6708  -22.5354   -9.9742 H   0  0  0  0  0  0  0  0  0  0  0  0
   16.3132  -20.0408  -10.2463 H   0  0  0  0  0  0  0  0  0  0  0  0
   15.5845  -22.4546  -11.2397 H   0  0  0  0  0  0  0  0  0  0  0  0
   15.7673  -21.9291  -12.7000 H   0  0  0  0  0  0  0  0  0  0  0  0
   18.7486  -17.7014  -10.5604 H   0  0  0  0  0  0  0  0  0  0  0  0
   17.1960  -19.5478  -10.3557 H   0  0  0  0  0  0  0  0  0  0  0  0
  1  2  1  0
  2  3  1  0
  3  4  1  0
  4  5  1  0
  5  6  1  0
  6  7  1  0
  7  8  1  0
  8  9  1  0
  9 10  1  0
 10 11  1  0
 11  6  1  0
 10  8  1  0
 11  8  1  0
  1 12  1  0
  3 13  1  0
  3 14  1  0
  4 15  1  0
  4 16  1  0
  5 17  1  0
  5 18  1  0
  6 19  1  0
 10 20  1  0
 11 21  1  0
M  END
