
     RDKit          2D

 24 25  0  0  0  0  0  0  0  0999 V2000
   -1.0059   25.3993    7.6897 C   0  0  0  0  0  0  0  0  0  0  0  0
   -0.8853   24.1384    6.8861 C   0  0  0  0  0  0  0  0  0  0  0  0
   -0.7646   22.8775    6.0826 C   0  0  0  0  0  0  0  0  0  0  0  0
   -0.8116   24.9486    5.6258 C   0  0  0  0  0  0  0  0  0  0  0  0
   -0.7380   25.7588    4.3657 C   0  0  0  0  0  0  0  0  0  0  0  0
   -0.6643   26.5689    3.1054 C   0  0  0  0  0  0  0  0  0  0  0  0
   -0.4545   27.9358    3.6864 C   0  0  0  0  0  0  0  0  0  0  0  0
   -0.3169   29.1230    2.7799 O   0  0  0  0  0  0  0  0  0  0  0  0
   -0.5267   27.7561    2.1989 C   0  0  0  0  0  0  0  0  0  0  0  0
   -0.5988   27.5764    0.7115 O   0  0  0  0  0  0  0  0  0  0  0  0
   -1.1266   26.6601    8.4932 H   0  0  0  0  0  0  0  0  0  0  0  0
   -0.4927   24.6770    8.9000 H   0  0  0  0  0  0  0  0  0  0  0  0
   -1.3154   25.9133    7.0381 H   0  0  0  0  0  0  0  0  0  0  0  0
   -0.9589   23.3282    8.1464 H   0  0  0  0  0  0  0  0  0  0  0  0
   -0.6439   21.6167    5.2790 H   0  0  0  0  0  0  0  0  0  0  0  0
   -0.2526   22.1550    7.2933 H   0  0  0  0  0  0  0  0  0  0  0  0
   -1.0560   23.2102    5.3152 H   0  0  0  0  0  0  0  0  0  0  0  0
   -0.9234   24.2771    5.0591 H   0  0  0  0  0  0  0  0  0  0  0  0
   -0.6892   25.7366    6.0112 H   0  0  0  0  0  0  0  0  0  0  0  0
   -0.5375   27.0038    5.1777 H   0  0  0  0  0  0  0  0  0  0  0  0
   -0.9384   24.5136    3.5535 H   0  0  0  0  0  0  0  0  0  0  0  0
   -0.8485   25.4834    2.0867 H   0  0  0  0  0  0  0  0  0  0  0  0
   -0.3823   28.1156    5.1738 H   0  0  0  0  0  0  0  0  0  0  0  0
   -0.9474   26.2366    0.1340 H   0  0  0  0  0  0  0  0  0  0  0  0
  1  2  1  0
  2  3  1  0
  2  4  1  0
  4  5  1  0
  5  6  1  0
  6  7  1  0
  7  8  1  0
  8  9  1  0
  9 10  1  0
  9  6  1  0
  9  7  1  0
  1 11  1  0
  1 12  1  0
  1 13  1  0
  2 14  1  0
  3 15  1  0
  3 16  1  0
  3 17  1  0
  4 18  1  0
  4 19  1  0
  5 20  1  0
  5 21  1  0
  6 22  1  0
  7 23  1  0
 10 24  1  0
M  END
