
     RDKit          2D

 44 46  0  0  0  0  0  0  0  0999 V2000
   -3.9852   30.5682    4.6796 C   0  0  0  0  0  0  0  0  0  0  0  0
   -2.8800   29.5880    4.9401 C   0  0  0  0  0  0  0  0  0  0  0  0
   -1.7749   28.6077    5.2005 O   0  0  0  0  0  0  0  0  0  0  0  0
   -1.9056   27.1885    4.7327 C   0  0  0  0  0  0  0  0  0  0  0  0
   -2.0363   25.7693    4.2650 C   0  0  0  0  0  0  0  0  0  0  0  0
   -3.3668   26.2285    3.7463 O   0  0  0  0  0  0  0  0  0  0  0  0
   -4.0359   25.0592    3.0868 C   0  0  0  0  0  0  0  0  0  0  0  0
   -4.4448   23.7360    2.5106 C   0  0  0  0  0  0  0  0  0  0  0  0
   -3.1190   23.8773    3.1979 C   0  0  0  0  0  0  0  0  0  0  0  0
   -2.6887   22.4536    3.0027 O   0  0  0  0  0  0  0  0  0  0  0  0
   -1.8832   24.3162    3.9261 C   0  0  0  0  0  0  0  0  0  0  0  0
   -0.5575   24.4574    4.6134 C   0  0  0  0  0  0  0  0  0  0  0  0
    0.7683   24.5987    5.3007 C   0  0  0  0  0  0  0  0  0  0  0  0
   -0.2652   23.0105    4.3470 C   0  0  0  0  0  0  0  0  0  0  0  0
    1.0617   23.1524    5.0322 C   0  0  0  0  0  0  0  0  0  0  0  0
    1.3539   21.7055    4.7658 C   0  0  0  0  0  0  0  0  0  0  0  0
    0.0271   21.5636    4.0806 C   0  0  0  0  0  0  0  0  0  0  0  0
   -1.2997   21.4217    3.3954 C   0  0  0  0  0  0  0  0  0  0  0  0
   -5.0903   31.5485    4.4192 H   0  0  0  0  0  0  0  0  0  0  0  0
   -3.1999   31.6389    5.3774 H   0  0  0  0  0  0  0  0  0  0  0  0
   -4.7705   29.4975    3.9818 H   0  0  0  0  0  0  0  0  0  0  0  0
   -2.0939   30.6591    5.6363 H   0  0  0  0  0  0  0  0  0  0  0  0
   -3.6662   28.5168    4.2438 H   0  0  0  0  0  0  0  0  0  0  0  0
   -1.0083   26.7385    5.8473 H   0  0  0  0  0  0  0  0  0  0  0  0
   -2.8030   27.6385    3.6181 H   0  0  0  0  0  0  0  0  0  0  0  0
   -1.3209   25.7772    4.6164 H   0  0  0  0  0  0  0  0  0  0  0  0
   -5.2809   25.7950    2.6886 H   0  0  0  0  0  0  0  0  0  0  0  0
   -5.7909   24.0979    1.9566 H   0  0  0  0  0  0  0  0  0  0  0  0
   -4.3861   22.2871    2.1268 H   0  0  0  0  0  0  0  0  0  0  0  0
   -3.5889   21.4892    2.2888 H   0  0  0  0  0  0  0  0  0  0  0  0
   -1.6131   22.8675    3.6456 H   0  0  0  0  0  0  0  0  0  0  0  0
   -0.6258   25.2298    4.7984 H   0  0  0  0  0  0  0  0  0  0  0  0
    2.0940   24.7400    5.9880 H   0  0  0  0  0  0  0  0  0  0  0  0
    0.4752   26.0452    5.5688 H   0  0  0  0  0  0  0  0  0  0  0  0
    1.3735   23.2295    5.2069 H   0  0  0  0  0  0  0  0  0  0  0  0
   -1.5464   22.6933    3.6345 H   0  0  0  0  0  0  0  0  0  0  0  0
    2.3884   23.2942    5.7174 H   0  0  0  0  0  0  0  0  0  0  0  0
    1.0990   24.5906    5.4565 H   0  0  0  0  0  0  0  0  0  0  0  0
    1.6462   20.2586    4.4994 H   0  0  0  0  0  0  0  0  0  0  0  0
    2.6807   21.8473    5.4510 H   0  0  0  0  0  0  0  0  0  0  0  0
    0.3194   20.1167    3.8142 H   0  0  0  0  0  0  0  0  0  0  0  0
   -2.6264   21.2799    2.7102 H   0  0  0  0  0  0  0  0  0  0  0  0
   -0.7647   20.0660    3.0405 H   0  0  0  0  0  0  0  0  0  0  0  0
   -1.0882   20.0314    2.8734 H   0  0  0  0  0  0  0  0  0  0  0  0
  1  2  1  0
  2  3  1  0
  3  4  1  0
  4  5  1  0
  5  6  1  0
  6  7  1  0
  7  8  1  0
  8  9  1  0
  9 10  1  0
  9 11  1  0
 11 12  1  0
 12 13  1  0
 12 14  1  0
 14 15  1  0
 15 16  1  0
 16 17  1  0
 17 18  1  0
 11  5  1  0
 17 14  1  0
  9  7  1  0
  1 19  1  0
  1 20  1  0
  1 21  1  0
  2 22  1  0
  2 23  1  0
  4 24  1  0
  4 25  1  0
  5 26  1  0
  7 27  1  0
  8 28  1  0
  8 29  1  0
 10 30  1  0
 11 31  1  0
 12 32  1  0
 13 33  1  0
 13 34  1  0
 13 35  1  0
 14 36  1  0
 15 37  1  0
 15 38  1  0
 16 39  1  0
 16 40  1  0
 17 41  1  0
 18 42  1  0
 18 43  1  0
 18 44  1  0
M  END
