
     RDKit          2D

 19 19  0  0  0  0  0  0  0  0999 V2000
   -3.1856   29.6230    7.9785 C   0  0  0  0  0  0  0  0  0  0  0  0
   -4.4488   29.0483    8.5475 C   0  0  0  0  0  0  0  0  0  0  0  0
   -5.7121   28.4736    9.1166 C   0  0  0  0  0  0  0  0  0  0  0  0
   -6.9754   27.8989    9.6856 O   0  0  0  0  0  0  0  0  0  0  0  0
   -8.2082   27.8097    8.8356 C   0  0  0  0  0  0  0  0  0  0  0  0
   -9.1579   27.1914    9.8183 C   0  0  0  0  0  0  0  0  0  0  0  0
   -9.6221   27.5166    8.4295 N   0  0  0  0  0  0  0  0  0  0  0  0
   -3.6429   28.2406    9.5212 N   0  0  0  0  0  0  0  0  0  0  0  0
   -2.1489   28.2138    9.6532 O   0  0  0  0  0  0  0  0  0  0  0  0
   -1.9221   30.1977    7.4096 H   0  0  0  0  0  0  0  0  0  0  0  0
   -3.8792   29.8507    6.6682 H   0  0  0  0  0  0  0  0  0  0  0  0
   -2.3430   29.4671    9.2098 H   0  0  0  0  0  0  0  0  0  0  0  0
   -5.2548   29.8561    7.5739 H   0  0  0  0  0  0  0  0  0  0  0  0
   -6.3085   28.4226    7.7411 H   0  0  0  0  0  0  0  0  0  0  0  0
   -5.1158   28.5246   10.4920 H   0  0  0  0  0  0  0  0  0  0  0  0
   -7.6866   28.3971    7.5577 H   0  0  0  0  0  0  0  0  0  0  0  0
  -10.4212   26.6167   10.3873 H   0  0  0  0  0  0  0  0  0  0  0  0
   -8.2550   27.0659   11.0095 H   0  0  0  0  0  0  0  0  0  0  0  0
  -10.7064   27.5350    7.3932 H   0  0  0  0  0  0  0  0  0  0  0  0
  1  2  1  0
  2  3  1  0
  3  4  1  0
  4  5  1  0
  5  6  1  0
  6  7  1  0
  2  8  1  0
  8  9  2  0
  7  5  1  0
  1 10  1  0
  1 11  1  0
  1 12  1  0
  2 13  1  0
  3 14  1  0
  3 15  1  0
  5 16  1  0
  6 17  1  0
  6 18  1  0
  7 19  1  0
M  END
