
     RDKit          2D

 30 36  0  0  0  0  0  0  0  0999 V2000
   -7.4180   26.7982    7.1297 N   0  0  0  0  0  0  0  0  0  0  0  0
   -6.1551   26.5188    6.3699 C   0  0  0  0  0  0  0  0  0  0  0  0
   -4.8923   26.2395    5.6102 C   0  0  0  0  0  0  0  0  0  0  0  0
   -3.6294   25.9602    4.8504 C   0  0  0  0  0  0  0  0  0  0  0  0
   -3.6987   24.4639    4.7711 C   0  0  0  0  0  0  0  0  0  0  0  0
   -2.6121   23.6986    4.0754 C   0  0  0  0  0  0  0  0  0  0  0  0
   -1.3176   23.6789    3.3180 C   0  0  0  0  0  0  0  0  0  0  0  0
   -1.2484   25.1752    3.3974 C   0  0  0  0  0  0  0  0  0  0  0  0
   -0.1619   24.4099    2.7017 C   0  0  0  0  0  0  0  0  0  0  0  0
    0.7233   25.5436    2.2756 C   0  0  0  0  0  0  0  0  0  0  0  0
    1.9863   25.2642    1.5162 C   0  0  0  0  0  0  0  0  0  0  0  0
    1.6085   26.6771    1.8495 C   0  0  0  0  0  0  0  0  0  0  0  0
    1.2306   28.0899    2.1827 O   0  0  0  0  0  0  0  0  0  0  0  0
    0.3454   26.9564    2.6089 C   0  0  0  0  0  0  0  0  0  0  0  0
   -2.5429   25.1950    4.1548 C   0  0  0  0  0  0  0  0  0  0  0  0
   -8.3032   25.6647    7.5558 H   0  0  0  0  0  0  0  0  0  0  0  0
   -7.7955   28.2111    7.4632 H   0  0  0  0  0  0  0  0  0  0  0  0
   -6.4475   25.0486    6.4248 H   0  0  0  0  0  0  0  0  0  0  0  0
   -5.8628   27.9891    6.3151 H   0  0  0  0  0  0  0  0  0  0  0  0
   -5.1849   24.7693    5.6641 H   0  0  0  0  0  0  0  0  0  0  0  0
   -4.5996   27.7097    5.5563 H   0  0  0  0  0  0  0  0  0  0  0  0
   -3.1215   27.3595    4.6659 H   0  0  0  0  0  0  0  0  0  0  0  0
   -4.8544   23.7329    5.3874 H   0  0  0  0  0  0  0  0  0  0  0  0
   -3.0141   22.2585    4.1949 H   0  0  0  0  0  0  0  0  0  0  0  0
   -1.0495   22.2285    3.0453 H   0  0  0  0  0  0  0  0  0  0  0  0
   -1.0469   26.3732    3.3756 H   0  0  0  0  0  0  0  0  0  0  0  0
    0.6172   23.2510    2.1540 H   0  0  0  0  0  0  0  0  0  0  0  0
    1.9172   23.7679    1.4371 H   0  0  0  0  0  0  0  0  0  0  0  0
    3.2734   25.5046    0.7843 H   0  0  0  0  0  0  0  0  0  0  0  0
   -0.6412   27.3260    3.2141 H   0  0  0  0  0  0  0  0  0  0  0  0
  1  2  1  0
  2  3  1  0
  3  4  1  0
  4  5  1  0
  5  6  1  0
  6  7  1  0
  7  8  1  0
  8  9  1  0
  9 10  1  0
 10 11  1  0
 11 12  1  0
 12 13  1  0
 13 14  1  0
  8 15  1  0
 15  4  1  0
 15  5  1  0
 15  6  1  0
  9  7  1  0
 12 10  1  0
 14 10  1  0
 14 12  1  0
  1 16  1  0
  1 17  1  0
  2 18  1  0
  2 19  1  0
  3 20  1  0
  3 21  1  0
  4 22  1  0
  5 23  1  0
  6 24  1  0
  7 25  1  0
  8 26  1  0
  9 27  1  0
 11 28  1  0
 11 29  1  0
 14 30  1  0
M  END
