
     RDKit          2D

 29 28  0  0  0  0  0  0  0  0999 V2000
   19.2016  -23.4870   -6.8050 C   0  0  0  0  0  0  0  0  0  0  0  0
   18.1684  -23.2679   -5.7399 C   0  0  0  0  0  0  0  0  0  0  0  0
   17.1353  -23.0487   -4.6747 C   0  0  0  0  0  0  0  0  0  0  0  0
   16.1021  -22.8296   -3.6095 O   0  0  0  0  0  0  0  0  0  0  0  0
   17.3058  -22.5383   -6.7266 N   0  0  0  0  0  0  0  0  0  0  0  0
   17.9203  -21.9224   -7.9485 C   0  0  0  0  0  0  0  0  0  0  0  0
   19.3974  -22.0360   -8.1836 N   0  0  0  0  0  0  0  0  0  0  0  0
   20.0119  -21.4201   -9.4055 C   0  0  0  0  0  0  0  0  0  0  0  0
   20.6264  -20.8042  -10.6274 N   0  0  0  0  0  0  0  0  0  0  0  0
   17.0577  -21.1929   -8.9353 N   0  0  0  0  0  0  0  0  0  0  0  0
   17.6722  -20.5770  -10.1572 C   0  0  0  0  0  0  0  0  0  0  0  0
   15.5806  -21.0793   -8.7002 C   0  0  0  0  0  0  0  0  0  0  0  0
   14.7181  -20.3498   -9.6870 O   0  0  0  0  0  0  0  0  0  0  0  0
   20.2347  -23.7062   -7.8702 H   0  0  0  0  0  0  0  0  0  0  0  0
   19.2511  -22.5274   -7.3270 H   0  0  0  0  0  0  0  0  0  0  0  0
   19.3892  -24.8983   -6.3327 H   0  0  0  0  0  0  0  0  0  0  0  0
   19.0310  -23.9974   -4.7531 H   0  0  0  0  0  0  0  0  0  0  0  0
   17.4416  -24.3998   -4.0996 H   0  0  0  0  0  0  0  0  0  0  0  0
   16.7052  -21.6810   -5.1156 H   0  0  0  0  0  0  0  0  0  0  0  0
   14.9825  -21.8581   -3.8392 H   0  0  0  0  0  0  0  0  0  0  0  0
   15.8222  -22.3309   -6.6487 H   0  0  0  0  0  0  0  0  0  0  0  0
   21.3630  -21.9051   -8.9705 H   0  0  0  0  0  0  0  0  0  0  0  0
   19.2594  -21.2042   -9.5558 H   0  0  0  0  0  0  0  0  0  0  0  0
   19.7638  -20.0747  -11.6142 H   0  0  0  0  0  0  0  0  0  0  0  0
   22.1036  -20.9178  -10.8625 H   0  0  0  0  0  0  0  0  0  0  0  0
   18.2867  -19.9611  -11.3791 H   0  0  0  0  0  0  0  0  0  0  0  0
   16.3205  -20.0956  -10.5943 H   0  0  0  0  0  0  0  0  0  0  0  0
   18.3454  -20.8708   -9.8474 H   0  0  0  0  0  0  0  0  0  0  0  0
   14.9661  -21.6952   -7.4783 H   0  0  0  0  0  0  0  0  0  0  0  0
  1  2  1  0
  2  3  1  0
  3  4  1  0
  2  5  1  0
  5  6  1  0
  6  7  2  3
  7  8  1  0
  8  9  1  0
  6 10  1  0
 10 11  1  0
 10 12  1  0
 12 13  2  0
  1 14  1  0
  1 15  1  0
  1 16  1  0
  2 17  1  1
  3 18  1  0
  3 19  1  0
  4 20  1  0
  5 21  1  0
  8 22  1  0
  8 23  1  0
  9 24  1  0
  9 25  1  0
 11 26  1  0
 11 27  1  0
 11 28  1  0
 12 29  1  0
M  END
