
     RDKit          2D

 43 45  0  0  0  0  0  0  0  0999 V2000
    8.0525   19.6802    8.3122 C   0  0  0  0  0  0  0  0  0  0  0  0
    7.1164   20.7815    7.9112 C   0  0  0  0  0  0  0  0  0  0  0  0
    6.1804   21.8830    7.5102 C   0  0  0  0  0  0  0  0  0  0  0  0
    5.2444   22.9843    7.1092 C   0  0  0  0  0  0  0  0  0  0  0  0
    4.3083   24.0856    6.7082 C   0  0  0  0  0  0  0  0  0  0  0  0
    3.3722   25.1871    6.3072 C   0  0  0  0  0  0  0  0  0  0  0  0
    2.4362   26.2884    5.9062 C   0  0  0  0  0  0  0  0  0  0  0  0
    1.9573   27.6195    5.4071 C   0  0  0  0  0  0  0  0  0  0  0  0
    0.4872   27.9067    5.3297 C   0  0  0  0  0  0  0  0  0  0  0  0
   -0.6382   28.8410    4.9968 C   0  0  0  0  0  0  0  0  0  0  0  0
   -1.2996   27.5886    5.4910 N   0  0  0  0  0  0  0  0  0  0  0  0
   -0.0254   25.5319    6.2503 C   0  0  0  0  0  0  0  0  0  0  0  0
    1.4448   25.2446    6.3278 C   0  0  0  0  0  0  0  0  0  0  0  0
    0.8982   23.9443    6.8378 C   0  0  0  0  0  0  0  0  0  0  0  0
   -0.5042   26.8628    5.7513 C   0  0  0  0  0  0  0  0  0  0  0  0
   -0.2326   27.8694    5.3599 C   0  0  0  0  0  0  0  0  0  0  0  0
   -2.7548   28.7315    5.0856 Cl  0  0  0  0  0  0  0  0  0  0  0  0
    8.9885   18.5789    8.7132 H   0  0  0  0  0  0  0  0  0  0  0  0
    6.8806   18.8120    8.6632 H   0  0  0  0  0  0  0  0  0  0  0  0
    9.2243   20.5484    7.9612 H   0  0  0  0  0  0  0  0  0  0  0  0
    5.9451   19.9205    8.2804 H   0  0  0  0  0  0  0  0  0  0  0  0
    8.2878   21.6427    7.5420 H   0  0  0  0  0  0  0  0  0  0  0  0
    7.3519   22.7449    7.1431 H   0  0  0  0  0  0  0  0  0  0  0  0
    5.0089   21.0210    7.8773 H   0  0  0  0  0  0  0  0  0  0  0  0
    4.0726   22.1187    7.4669 H   0  0  0  0  0  0  0  0  0  0  0  0
    6.4160   23.8499    6.7516 H   0  0  0  0  0  0  0  0  0  0  0  0
    3.2594   23.0916    7.1103 H   0  0  0  0  0  0  0  0  0  0  0  0
    5.4800   24.9520    6.3523 H   0  0  0  0  0  0  0  0  0  0  0  0
    2.8150   24.6613    6.5276 H   0  0  0  0  0  0  0  0  0  0  0  0
    4.5437   26.0484    5.9386 H   0  0  0  0  0  0  0  0  0  0  0  0
    3.7526   26.9497    5.6239 H   0  0  0  0  0  0  0  0  0  0  0  0
    3.4400   27.8185    5.2981 H   0  0  0  0  0  0  0  0  0  0  0  0
    2.1759   29.0037    4.8723 H   0  0  0  0  0  0  0  0  0  0  0  0
    0.9847   29.2245    4.8141 H   0  0  0  0  0  0  0  0  0  0  0  0
   -0.7329   30.2397    4.4634 H   0  0  0  0  0  0  0  0  0  0  0  0
   -2.7351   27.1937    5.6740 H   0  0  0  0  0  0  0  0  0  0  0  0
   -1.1465   24.6097    6.6282 H   0  0  0  0  0  0  0  0  0  0  0  0
    2.0696   24.7778    6.4927 H   0  0  0  0  0  0  0  0  0  0  0  0
    0.3515   22.6438    7.3478 H   0  0  0  0  0  0  0  0  0  0  0  0
    2.2176   23.2692    7.0688 H   0  0  0  0  0  0  0  0  0  0  0  0
   -0.5546   24.3022    6.7312 H   0  0  0  0  0  0  0  0  0  0  0  0
   -1.7530   26.0964    6.0724 H   0  0  0  0  0  0  0  0  0  0  0  0
   -2.7506   26.8750    5.7963 H   0  0  0  0  0  0  0  0  0  0  0  0
  1  2  1  0
  2  3  1  0
  3  4  1  0
  4  5  1  0
  5  6  1  0
  6  7  1  0
  7  8  1  0
  8  9  1  0
  9 10  1  0
 10 11  1  0
 11 12  1  0
 12 13  1  0
 13 14  1  0
 12 15  1  0
 15 16  1  0
 16 17  1  0
 13  7  1  0
 15  9  1  0
 16 10  1  0
  1 18  1  0
  1 19  1  0
  1 20  1  0
  2 21  1  0
  2 22  1  0
  3 23  1  0
  3 24  1  0
  4 25  1  0
  4 26  1  0
  5 27  1  0
  5 28  1  0
  6 29  1  0
  6 30  1  0
  7 31  1  0
  8 32  1  0
  8 33  1  0
  9 34  1  0
 10 35  1  0
 11 36  1  0
 12 37  1  0
 13 38  1  0
 14 39  1  0
 14 40  1  0
 14 41  1  0
 15 42  1  0
 16 43  1  0
M  END
