
     RDKit          2D

 19 21  0  0  0  0  0  0  0  0999 V2000
   16.5218  -21.8335  -10.6204 C   0  0  0  0  0  0  0  0  0  0  0  0
   17.7459  -22.1912   -9.8307 C   0  0  0  0  0  0  0  0  0  0  0  0
   17.6142  -22.6424   -8.4063 C   0  0  0  0  0  0  0  0  0  0  0  0
   16.1244  -22.5706   -8.2470 O   0  0  0  0  0  0  0  0  0  0  0  0
   15.4912  -22.9424   -6.9391 C   0  0  0  0  0  0  0  0  0  0  0  0
   14.0014  -22.8705   -6.7798 O   0  0  0  0  0  0  0  0  0  0  0  0
   18.9700  -22.5489   -9.0411 C   0  0  0  0  0  0  0  0  0  0  0  0
   19.1018  -22.0977  -10.4656 C   0  0  0  0  0  0  0  0  0  0  0  0
   20.4576  -22.0042  -11.1003 C   0  0  0  0  0  0  0  0  0  0  0  0
   19.2335  -21.6465  -11.8900 N   0  0  0  0  0  0  0  0  0  0  0  0
   15.2977  -21.4758  -11.4101 H   0  0  0  0  0  0  0  0  0  0  0  0
   15.6549  -22.3249   -9.4992 H   0  0  0  0  0  0  0  0  0  0  0  0
   17.3887  -21.3422  -11.7416 H   0  0  0  0  0  0  0  0  0  0  0  0
   17.9999  -23.1186   -7.0371 H   0  0  0  0  0  0  0  0  0  0  0  0
   16.3477  -23.3861   -5.7904 H   0  0  0  0  0  0  0  0  0  0  0  0
   20.1942  -22.9066   -8.2514 H   0  0  0  0  0  0  0  0  0  0  0  0
   21.3142  -22.4479   -9.9517 H   0  0  0  0  0  0  0  0  0  0  0  0
   21.5160  -21.7566  -12.1340 H   0  0  0  0  0  0  0  0  0  0  0  0
   18.6028  -21.1795  -13.1683 H   0  0  0  0  0  0  0  0  0  0  0  0
  1  2  1  0
  2  3  1  0
  3  4  1  0
  4  5  1  0
  5  6  2  0
  3  7  1  0
  7  8  1  0
  8  9  1  0
  9 10  1  0
  7  2  1  0
 10  8  1  0
  8  2  1  0
  1 11  1  0
  1 12  1  0
  1 13  1  0
  3 14  1  0
  5 15  1  0
  7 16  1  0
  9 17  1  0
  9 18  1  0
 10 19  1  0
M  END
