
     RDKit          2D

 93110  0  0  0  0  0  0  0  0999 V2000
   23.1886  -20.7223  -25.3922 C   0  0  0  0  0  0  0  0  0  0  0  0
   22.6293  -20.4905  -24.0197 C   0  0  0  0  0  0  0  0  0  0  0  0
   21.5029  -21.3426  -23.5150 C   0  0  0  0  0  0  0  0  0  0  0  0
   20.3763  -22.1948  -23.0103 C   0  0  0  0  0  0  0  0  0  0  0  0
   20.1853  -21.5945  -21.6489 C   0  0  0  0  0  0  0  0  0  0  0  0
   19.7677  -21.2093  -20.2607 C   0  0  0  0  0  0  0  0  0  0  0  0
   19.5768  -20.6091  -18.8994 C   0  0  0  0  0  0  0  0  0  0  0  0
   19.3859  -20.0088  -17.5380 C   0  0  0  0  0  0  0  0  0  0  0  0
   19.1949  -19.4086  -16.1766 C   0  0  0  0  0  0  0  0  0  0  0  0
   19.0039  -18.8084  -14.8154 C   0  0  0  0  0  0  0  0  0  0  0  0
   17.9639  -19.8888  -14.8527 C   0  0  0  0  0  0  0  0  0  0  0  0
   16.9768  -20.2738  -13.7908 C   0  0  0  0  0  0  0  0  0  0  0  0
   15.9198  -20.8146  -12.8743 C   0  0  0  0  0  0  0  0  0  0  0  0
   16.7859  -19.6735  -12.4295 C   0  0  0  0  0  0  0  0  0  0  0  0
   17.5349  -18.5400  -11.7937 C   0  0  0  0  0  0  0  0  0  0  0  0
   16.6934  -18.6762  -10.5595 S   0  0  0  0  0  0  0  0  0  0  0  0
   15.9443  -19.8097  -11.1953 C   0  0  0  0  0  0  0  0  0  0  0  0
   14.8351  -20.7839  -10.9299 C   0  0  0  0  0  0  0  0  0  0  0  0
   14.4508  -21.7865  -11.9774 C   0  0  0  0  0  0  0  0  0  0  0  0
   16.2851  -20.8406  -13.5556 N   0  0  0  0  0  0  0  0  0  0  0  0
   15.5600  -20.8123  -12.2427 C   0  0  0  0  0  0  0  0  0  0  0  0
   18.6598  -17.7268  -12.3622 C   0  0  0  0  0  0  0  0  0  0  0  0
   19.1275  -16.6839  -11.3909 C   0  0  0  0  0  0  0  0  0  0  0  0
   20.2490  -15.7603  -11.7644 C   0  0  0  0  0  0  0  0  0  0  0  0
   20.3378  -14.9390  -10.5123 C   0  0  0  0  0  0  0  0  0  0  0  0
   19.7813  -16.8033  -12.7357 C   0  0  0  0  0  0  0  0  0  0  0  0
   19.3136  -17.8462  -13.7070 C   0  0  0  0  0  0  0  0  0  0  0  0
   20.3706  -17.3054  -14.6236 C   0  0  0  0  0  0  0  0  0  0  0  0
   21.4276  -16.7645  -15.5402 C   0  0  0  0  0  0  0  0  0  0  0  0
   21.2273  -17.6606  -16.7263 C   0  0  0  0  0  0  0  0  0  0  0  0
   22.6345  -17.3890  -17.1691 C   0  0  0  0  0  0  0  0  0  0  0  0
   22.4342  -18.2852  -18.3552 C   0  0  0  0  0  0  0  0  0  0  0  0
   21.0270  -18.5568  -17.9123 C   0  0  0  0  0  0  0  0  0  0  0  0
   19.6199  -18.8284  -17.4695 C   0  0  0  0  0  0  0  0  0  0  0  0
   22.5542  -15.9123  -16.0449 C   0  0  0  0  0  0  0  0  0  0  0  0
   21.9950  -15.6805  -14.6725 C   0  0  0  0  0  0  0  0  0  0  0  0
   22.8611  -14.5394  -14.2278 C   0  0  0  0  0  0  0  0  0  0  0  0
   18.6436  -22.1124  -19.8475 C   0  0  0  0  0  0  0  0  0  0  0  0
   17.9180  -24.5821  -22.8133 C   0  0  0  0  0  0  0  0  0  0  0  0
   17.5004  -24.1969  -21.4250 C   0  0  0  0  0  0  0  0  0  0  0  0
   18.7934  -23.1304  -21.8528 C   0  0  0  0  0  0  0  0  0  0  0  0
   19.0422  -23.6790  -23.2266 C   0  0  0  0  0  0  0  0  0  0  0  0
   19.3193  -22.7357  -22.0936 C   0  0  0  0  0  0  0  0  0  0  0  0
   18.3664  -23.0558  -20.9803 C   0  0  0  0  0  0  0  0  0  0  0  0
   24.3151  -19.8701  -25.8968 H   0  0  0  0  0  0  0  0  0  0  0  0
   22.6211  -21.8064  -26.2599 H   0  0  0  0  0  0  0  0  0  0  0  0
   23.1968  -19.4065  -23.1520 H   0  0  0  0  0  0  0  0  0  0  0  0
   21.6427  -20.4825  -22.2941 H   0  0  0  0  0  0  0  0  0  0  0  0
   21.5002  -22.1045  -24.8071 H   0  0  0  0  0  0  0  0  0  0  0  0
   20.3127  -22.9980  -24.2755 H   0  0  0  0  0  0  0  0  0  0  0  0
   21.2242  -20.5132  -21.6081 H   0  0  0  0  0  0  0  0  0  0  0  0
   20.8519  -20.1808  -20.3894 H   0  0  0  0  0  0  0  0  0  0  0  0
   18.4514  -21.4997  -18.4631 H   0  0  0  0  0  0  0  0  0  0  0  0
   20.7022  -19.7185  -19.3357 H   0  0  0  0  0  0  0  0  0  0  0  0
   20.5091  -19.2116  -18.1319 H   0  0  0  0  0  0  0  0  0  0  0  0
   18.2758  -20.9802  -17.2654 H   0  0  0  0  0  0  0  0  0  0  0  0
   18.1152  -20.4448  -16.0727 H   0  0  0  0  0  0  0  0  0  0  0  0
   20.3210  -18.5188  -16.6125 H   0  0  0  0  0  0  0  0  0  0  0  0
   20.1130  -18.0989  -15.5340 H   0  0  0  0  0  0  0  0  0  0  0  0
   17.7664  -20.7832  -16.0405 H   0  0  0  0  0  0  0  0  0  0  0  0
   16.5091  -21.3167  -14.7622 H   0  0  0  0  0  0  0  0  0  0  0  0
   14.8888  -21.9021  -12.9393 H   0  0  0  0  0  0  0  0  0  0  0  0
   17.9639  -17.5151  -10.7860 H   0  0  0  0  0  0  0  0  0  0  0  0
   13.5884  -22.9278  -12.4289 H   0  0  0  0  0  0  0  0  0  0  0  0
   18.4737  -16.5644  -10.0462 H   0  0  0  0  0  0  0  0  0  0  0  0
   21.3395  -15.1220  -12.5726 H   0  0  0  0  0  0  0  0  0  0  0  0
   20.4268  -14.1177   -9.2603 H   0  0  0  0  0  0  0  0  0  0  0  0
   21.4608  -14.1459  -11.1123 H   0  0  0  0  0  0  0  0  0  0  0  0
   19.2149  -15.7321   -9.9123 H   0  0  0  0  0  0  0  0  0  0  0  0
   20.2483  -18.1500  -15.8571 H   0  0  0  0  0  0  0  0  0  0  0  0
   20.6286  -16.3734  -13.4770 H   0  0  0  0  0  0  0  0  0  0  0  0
   22.6484  -17.2818  -17.0212 H   0  0  0  0  0  0  0  0  0  0  0  0
   24.0416  -17.1174  -17.6120 H   0  0  0  0  0  0  0  0  0  0  0  0
   23.1693  -16.4538  -16.1255 H   0  0  0  0  0  0  0  0  0  0  0  0
   22.2339  -19.1814  -19.5412 H   0  0  0  0  0  0  0  0  0  0  0  0
   23.8413  -18.0136  -18.7981 H   0  0  0  0  0  0  0  0  0  0  0  0
   20.9998  -19.4132  -19.1436 H   0  0  0  0  0  0  0  0  0  0  0  0
   18.2059  -19.3086  -17.3270 H   0  0  0  0  0  0  0  0  0  0  0  0
   19.5922  -19.6837  -18.7015 H   0  0  0  0  0  0  0  0  0  0  0  0
   19.9368  -19.5667  -18.7362 H   0  0  0  0  0  0  0  0  0  0  0  0
   23.1304  -16.1246  -17.4135 H   0  0  0  0  0  0  0  0  0  0  0  0
   23.6530  -14.9112  -16.2458 H   0  0  0  0  0  0  0  0  0  0  0  0
   21.2302  -15.7059  -13.3824 H   0  0  0  0  0  0  0  0  0  0  0  0
   23.7271  -13.3983  -13.7830 H   0  0  0  0  0  0  0  0  0  0  0  0
   23.6460  -14.3996  -15.4983 H   0  0  0  0  0  0  0  0  0  0  0  0
   22.1765  -14.5400  -12.8931 H   0  0  0  0  0  0  0  0  0  0  0  0
   17.8229  -22.2175  -18.5963 H   0  0  0  0  0  0  0  0  0  0  0  0
   17.3171  -25.6779  -23.6427 H   0  0  0  0  0  0  0  0  0  0  0  0
   16.4084  -24.8400  -20.6224 H   0  0  0  0  0  0  0  0  0  0  0  0
   19.7993  -22.0262  -21.7152 H   0  0  0  0  0  0  0  0  0  0  0  0
   19.0896  -22.1760  -20.7342 H   0  0  0  0  0  0  0  0  0  0  0  0
   19.6517  -23.8521  -24.5861 H   0  0  0  0  0  0  0  0  0  0  0  0
   17.4136  -23.3758  -19.8669 H   0  0  0  0  0  0  0  0  0  0  0  0
  1  2  2  3
  2  3  1  0
  3  4  1  0
  4  5  1  0
  5  6  1  0
  6  7  1  0
  7  8  1  0
  8  9  1  0
  9 10  1  0
 10 11  1  0
 11 12  1  0
 12 13  1  0
 13 14  1  0
 14 15  1  0
 15 16  1  0
 16 17  1  0
 17 18  1  0
 18 19  1  0
 19 20  1  0
 20 21  1  0
 15 22  1  0
 22 23  1  0
 23 24  1  0
 24 25  1  0
 24 26  1  0
 26 27  1  0
 27 28  1  0
 28 29  1  0
 29 30  1  0
 30 31  1  0
 31 32  1  0
 32 33  1  0
 33 34  1  0
 29 35  1  0
 35 36  1  0
 36 37  1  0
  6 38  1  0
 38 39  1  0
 39 40  1  0
 40 41  1  0
 41 42  1  0
 42 43  1  0
 43 44  1  0
 43  4  1  0
 43  5  1  0
 27 10  1  0
 36 29  1  0
 44 38  1  0
 20 11  1  0
 26 22  1  0
 33 30  1  0
 42 39  1  0
 14 12  1  0
 21 17  1  0
 27 22  1  0
 44 40  1  0
 18 13  1  0
 21 19  1  0
 26 23  1  0
 17 14  1  0
 21 18  1  0
  1 45  1  0
  1 46  1  0
  2 47  1  0
  3 48  1  0
  3 49  1  0
  4 50  1  0
  5 51  1  0
  6 52  1  0
  7 53  1  0
  7 54  1  0
  8 55  1  0
  8 56  1  0
  9 57  1  0
  9 58  1  0
 10 59  1  0
 11 60  1  0
 12 61  1  0
 13 62  1  0
 15 63  1  0
 19 64  1  0
 23 65  1  0
 24 66  1  0
 25 67  1  0
 25 68  1  0
 25 69  1  0
 28 70  1  0
 28 71  1  0
 30 72  1  0
 31 73  1  0
 31 74  1  0
 32 75  1  0
 32 76  1  0
 33 77  1  0
 34 78  1  0
 34 79  1  0
 34 80  1  0
 35 81  1  0
 35 82  1  0
 36 83  1  0
 37 84  1  0
 37 85  1  0
 37 86  1  0
 38 87  1  0
 39 88  1  0
 40 89  1  0
 41 90  1  0
 41 91  1  0
 42 92  1  0
 44 93  1  0
M  END
