
     RDKit          2D

 47 54  0  0  0  0  0  0  0  0999 V2000
  -10.2803   27.9788    3.2822 C   0  0  0  0  0  0  0  0  0  0  0  0
   -9.0096   28.1366    4.0635 C   0  0  0  0  0  0  0  0  0  0  0  0
   -7.7389   28.2943    4.8449 N   0  0  0  0  0  0  0  0  0  0  0  0
   -6.4647   27.6891    4.3347 C   0  0  0  0  0  0  0  0  0  0  0  0
   -5.1905   27.0841    3.8244 C   0  0  0  0  0  0  0  0  0  0  0  0
   -5.2667   25.7327    4.4710 N   0  0  0  0  0  0  0  0  0  0  0  0
   -4.6790   24.3744    4.7149 C   0  0  0  0  0  0  0  0  0  0  0  0
   -3.5850   23.3729    4.4908 C   0  0  0  0  0  0  0  0  0  0  0  0
   -2.1462   23.4471    3.5783 C   0  0  0  0  0  0  0  0  0  0  0  0
   -0.9033   22.7341    3.1351 C   0  0  0  0  0  0  0  0  0  0  0  0
    0.3398   22.0210    2.6919 C   0  0  0  0  0  0  0  0  0  0  0  0
    1.2103   20.7995    2.7021 C   0  0  0  0  0  0  0  0  0  0  0  0
    2.4927   20.7859    1.9242 C   0  0  0  0  0  0  0  0  0  0  0  0
    2.9047   21.9938    1.1360 C   0  0  0  0  0  0  0  0  0  0  0  0
    2.0341   23.2153    1.1258 C   0  0  0  0  0  0  0  0  0  0  0  0
    0.7516   23.2290    1.9037 C   0  0  0  0  0  0  0  0  0  0  0  0
   -0.4913   23.9420    2.3469 C   0  0  0  0  0  0  0  0  0  0  0  0
   -1.7344   24.6551    2.7902 C   0  0  0  0  0  0  0  0  0  0  0  0
   -2.7893   25.7065    2.9682 C   0  0  0  0  0  0  0  0  0  0  0  0
   -1.6993   26.2194    2.0742 F   0  0  0  0  0  0  0  0  0  0  0  0
   -3.5088   24.7243    3.8442 C   0  0  0  0  0  0  0  0  0  0  0  0
   -4.0965   26.0827    3.6003 C   0  0  0  0  0  0  0  0  0  0  0  0
  -11.5510   27.8212    2.5008 H   0  0  0  0  0  0  0  0  0  0  0  0
  -10.5830   26.7141    4.0297 H   0  0  0  0  0  0  0  0  0  0  0  0
   -9.9776   29.2436    2.5347 H   0  0  0  0  0  0  0  0  0  0  0  0
   -9.3100   26.8693    4.8079 H   0  0  0  0  0  0  0  0  0  0  0  0
   -8.7092   29.4037    3.3192 H   0  0  0  0  0  0  0  0  0  0  0  0
   -7.7425   29.0570    6.1364 H   0  0  0  0  0  0  0  0  0  0  0  0
   -6.1620   28.9552    3.5894 H   0  0  0  0  0  0  0  0  0  0  0  0
   -6.7674   26.4231    5.0800 H   0  0  0  0  0  0  0  0  0  0  0  0
   -4.6718   28.2253    3.0006 H   0  0  0  0  0  0  0  0  0  0  0  0
   -5.6573   23.6848    5.6191 H   0  0  0  0  0  0  0  0  0  0  0  0
   -3.1443   21.9820    4.8390 H   0  0  0  0  0  0  0  0  0  0  0  0
   -2.1996   22.0895    4.2138 H   0  0  0  0  0  0  0  0  0  0  0  0
   -1.3151   21.5261    3.9232 H   0  0  0  0  0  0  0  0  0  0  0  0
   -0.5078   21.1681    3.5887 H   0  0  0  0  0  0  0  0  0  0  0  0
    1.6937   19.4158    3.0209 H   0  0  0  0  0  0  0  0  0  0  0  0
    0.1878   20.1747    3.6045 H   0  0  0  0  0  0  0  0  0  0  0  0
    3.7883   20.2934    1.3508 H   0  0  0  0  0  0  0  0  0  0  0  0
    2.5308   19.4069    2.5132 H   0  0  0  0  0  0  0  0  0  0  0  0
    3.7168   22.8851    0.2438 H   0  0  0  0  0  0  0  0  0  0  0  0
    4.0572   21.0818    0.8364 H   0  0  0  0  0  0  0  0  0  0  0  0
    1.7026   24.6168    0.7062 H   0  0  0  0  0  0  0  0  0  0  0  0
    3.1486   23.6824    0.2371 H   0  0  0  0  0  0  0  0  0  0  0  0
    0.6679   24.6160    1.3390 H   0  0  0  0  0  0  0  0  0  0  0  0
   -0.0795   25.1500    1.5588 H   0  0  0  0  0  0  0  0  0  0  0  0
   -0.9957   25.6197    1.9104 H   0  0  0  0  0  0  0  0  0  0  0  0
  1  2  1  0
  2  3  1  0
  3  4  1  0
  4  5  1  0
  5  6  1  0
  6  7  1  0
  7  8  1  0
  8  9  1  0
  9 10  1  0
 10 11  1  0
 11 12  1  0
 12 13  1  0
 13 14  1  0
 14 15  1  0
 15 16  1  0
 16 17  1  0
 17 18  1  0
 18 19  1  0
 19 20  1  0
 19 21  1  0
 21 22  1  0
 22  5  1  0
 22  6  1  0
 21  7  1  0
 21  8  1  0
 18  9  1  0
 22 19  1  0
 17 10  1  0
 16 11  1  0
  1 23  1  0
  1 24  1  0
  1 25  1  0
  2 26  1  0
  2 27  1  0
  3 28  1  0
  4 29  1  0
  4 30  1  0
  5 31  1  0
  7 32  1  0
  8 33  1  0
  9 34  1  0
 10 35  1  0
 11 36  1  0
 12 37  1  0
 12 38  1  0
 13 39  1  0
 13 40  1  0
 14 41  1  0
 14 42  1  0
 15 43  1  0
 15 44  1  0
 16 45  1  0
 17 46  1  0
 18 47  1  0
M  END
