
     RDKit          2D

 34 38  0  0  0  0  0  0  0  0999 V2000
   17.9585  -21.8844   -5.1068 O   0  0  0  0  0  0  0  0  0  0  0  0
   18.2933  -21.4415   -6.5003 C   0  0  0  0  0  0  0  0  0  0  0  0
   17.1846  -22.1086   -7.2591 N   0  0  0  0  0  0  0  0  0  0  0  0
   15.9568  -22.9701   -7.2756 C   0  0  0  0  0  0  0  0  0  0  0  0
   15.8669  -22.8135   -8.7647 Si  0  0  0  0  0  4  0  0  0  0  0  0
   14.7289  -23.8316   -7.2921 C   0  0  0  0  0  0  0  0  0  0  0  0
   13.6062  -24.6952   -6.7984 C   0  0  0  0  0  0  0  0  0  0  0  0
   14.6051  -24.1367   -5.8286 C   0  0  0  0  0  0  0  0  0  0  0  0
   14.0697  -24.7041   -4.5474 C   0  0  0  0  0  0  0  0  0  0  0  0
   13.9458  -25.0091   -3.0840 C   0  0  0  0  0  0  0  0  0  0  0  0
   15.0686  -24.1456   -3.5777 C   0  0  0  0  0  0  0  0  0  0  0  0
   18.2026  -21.2836   -7.9892 C   0  0  0  0  0  0  0  0  0  0  0  0
   18.1118  -21.1258   -9.4782 C   0  0  0  0  0  0  0  0  0  0  0  0
   19.1298  -20.3008  -10.2083 N   0  0  0  0  0  0  0  0  0  0  0  0
   19.2205  -20.4586   -8.7194 C   0  0  0  0  0  0  0  0  0  0  0  0
   20.3292  -19.7915   -7.9607 O   0  0  0  0  0  0  0  0  0  0  0  0
   18.8173  -21.4515   -3.9557 H   0  0  0  0  0  0  0  0  0  0  0  0
   19.5182  -20.6204   -6.2255 H   0  0  0  0  0  0  0  0  0  0  0  0
   16.1503  -23.0110   -6.0768 H   0  0  0  0  0  0  0  0  0  0  0  0
   15.7770  -22.6569  -10.2538 H   0  0  0  0  0  0  0  0  0  0  0  0
   17.0933  -21.9500   -8.7479 H   0  0  0  0  0  0  0  0  0  0  0  0
   14.9715  -23.4244   -8.9092 H   0  0  0  0  0  0  0  0  0  0  0  0
   14.4040  -23.9052   -8.3336 H   0  0  0  0  0  0  0  0  0  0  0  0
   12.9137  -24.9892   -8.0961 H   0  0  0  0  0  0  0  0  0  0  0  0
   12.6259  -25.5036   -6.0013 H   0  0  0  0  0  0  0  0  0  0  0  0
   15.5647  -23.5247   -5.4036 H   0  0  0  0  0  0  0  0  0  0  0  0
   12.8529  -25.5080   -4.8984 H   0  0  0  0  0  0  0  0  0  0  0  0
   12.7180  -25.8706   -3.1006 H   0  0  0  0  0  0  0  0  0  0  0  0
   14.2484  -25.0149   -1.6148 H   0  0  0  0  0  0  0  0  0  0  0  0
   15.7610  -23.8515   -2.2801 H   0  0  0  0  0  0  0  0  0  0  0  0
   16.0489  -23.3371   -4.3748 H   0  0  0  0  0  0  0  0  0  0  0  0
   17.0032  -21.7930  -10.2369 H   0  0  0  0  0  0  0  0  0  0  0  0
   19.6651  -19.7334  -11.4895 H   0  0  0  0  0  0  0  0  0  0  0  0
   21.3456  -18.9643   -8.6905 H   0  0  0  0  0  0  0  0  0  0  0  0
  1  2  1  0
  2  3  1  0
  3  4  1  0
  4  5  1  0
  4  6  1  0
  6  7  1  0
  7  8  1  0
  8  9  1  0
  9 10  1  0
 10 11  1  0
  3 12  1  0
 12 13  1  0
 13 14  1  0
 14 15  1  0
 15 16  1  0
 12  2  1  0
 15 13  1  0
  8  6  1  0
 11  9  1  0
 15 12  1  0
  1 17  1  0
  2 18  1  0
  4 19  1  0
  5 20  1  0
  5 21  1  0
  5 22  1  0
  6 23  1  0
  7 24  1  0
  7 25  1  0
  8 26  1  0
  9 27  1  0
 10 28  1  0
 10 29  1  0
 11 30  1  0
 11 31  1  0
 13 32  1  0
 14 33  1  0
 16 34  1  0
M  END
