
     RDKit          2D

 60 63  0  0  0  0  0  0  0  0999 V2000
   13.9690  -23.2499   -6.9438 C   0  0  0  0  0  0  0  0  0  0  0  0
   15.1991  -23.2929   -6.0864 C   0  0  0  0  0  0  0  0  0  0  0  0
   14.3095  -24.4457   -5.7263 C   0  0  0  0  0  0  0  0  0  0  0  0
   14.0983  -25.6558   -4.8654 C   0  0  0  0  0  0  0  0  0  0  0  0
   14.6326  -26.5391   -3.7772 C   0  0  0  0  0  0  0  0  0  0  0  0
   15.7429  -26.8150   -2.8070 C   0  0  0  0  0  0  0  0  0  0  0  0
   16.3910  -27.6121   -1.7141 N   0  0  0  0  0  0  0  0  0  0  0  0
   17.0765  -26.3961   -2.2629 C   0  0  0  0  0  0  0  0  0  0  0  0
   18.2100  -25.4152   -2.3177 C   0  0  0  0  0  0  0  0  0  0  0  0
   18.7836  -24.1840   -2.9539 C   0  0  0  0  0  0  0  0  0  0  0  0
   19.9789  -23.2789   -2.9047 C   0  0  0  0  0  0  0  0  0  0  0  0
   21.0891  -23.5549   -1.9345 O   0  0  0  0  0  0  0  0  0  0  0  0
   18.6152  -23.0930   -3.9697 C   0  0  0  0  0  0  0  0  0  0  0  0
   17.7582  -22.4890   -5.0423 B   0  0  0  0  0  0  0  0  0  0  0  0
   16.4847  -22.5635   -5.8314 C   0  0  0  0  0  0  0  0  0  0  0  0
   15.7288  -21.8597   -6.9191 C   0  0  0  0  0  0  0  0  0  0  0  0
   16.6796  -20.7374   -7.2131 C   0  0  0  0  0  0  0  0  0  0  0  0
   17.7593  -19.7047   -7.3468 C   0  0  0  0  0  0  0  0  0  0  0  0
   17.8201  -18.5306   -8.2782 C   0  0  0  0  0  0  0  0  0  0  0  0
   16.8164  -18.0991   -9.3061 C   0  0  0  0  0  0  0  0  0  0  0  0
   15.5039  -18.7353   -9.6562 C   0  0  0  0  0  0  0  0  0  0  0  0
   14.8710  -19.9600   -9.0650 C   0  0  0  0  0  0  0  0  0  0  0  0
   13.8672  -19.5286  -10.0928 C   0  0  0  0  0  0  0  0  0  0  0  0
   15.3942  -20.8511   -7.9778 C   0  0  0  0  0  0  0  0  0  0  0  0
   12.7391  -23.2068   -7.8012 H   0  0  0  0  0  0  0  0  0  0  0  0
   14.2950  -22.1425   -7.6438 H   0  0  0  0  0  0  0  0  0  0  0  0
   13.6171  -23.8982   -6.6415 H   0  0  0  0  0  0  0  0  0  0  0  0
   14.9835  -22.3408   -7.0188 H   0  0  0  0  0  0  0  0  0  0  0  0
   13.3518  -24.9060   -5.9850 H   0  0  0  0  0  0  0  0  0  0  0  0
   13.6454  -24.0484   -6.4989 H   0  0  0  0  0  0  0  0  0  0  0  0
   13.0152  -26.6855   -4.7365 H   0  0  0  0  0  0  0  0  0  0  0  0
   12.8548  -25.6461   -5.7042 H   0  0  0  0  0  0  0  0  0  0  0  0
   14.1424  -27.7745   -3.0819 H   0  0  0  0  0  0  0  0  0  0  0  0
   13.3258  -27.1989   -4.1040 H   0  0  0  0  0  0  0  0  0  0  0  0
   14.8804  -27.9794   -2.4192 H   0  0  0  0  0  0  0  0  0  0  0  0
   16.3694  -28.7745   -0.7661 H   0  0  0  0  0  0  0  0  0  0  0  0
   17.9055  -27.0290   -1.1850 H   0  0  0  0  0  0  0  0  0  0  0  0
   19.5076  -25.2569   -1.5819 H   0  0  0  0  0  0  0  0  0  0  0  0
   18.6599  -26.3554   -1.2388 H   0  0  0  0  0  0  0  0  0  0  0  0
   19.8409  -24.5413   -1.9517 H   0  0  0  0  0  0  0  0  0  0  0  0
   20.0639  -22.0980   -3.8257 H   0  0  0  0  0  0  0  0  0  0  0  0
   19.3007  -21.8770   -4.5185 H   0  0  0  0  0  0  0  0  0  0  0  0
   19.9480  -22.6120   -3.4775 H   0  0  0  0  0  0  0  0  0  0  0  0
   18.4974  -21.2847   -5.5456 H   0  0  0  0  0  0  0  0  0  0  0  0
   17.2759  -21.3737   -6.2879 H   0  0  0  0  0  0  0  0  0  0  0  0
   14.4175  -22.5011   -7.2642 H   0  0  0  0  0  0  0  0  0  0  0  0
   15.9794  -19.9839   -8.3048 H   0  0  0  0  0  0  0  0  0  0  0  0
   18.2825  -20.5958   -6.2595 H   0  0  0  0  0  0  0  0  0  0  0  0
   19.0909  -19.2024   -6.8730 H   0  0  0  0  0  0  0  0  0  0  0  0
   19.1393  -18.2678   -7.6144 H   0  0  0  0  0  0  0  0  0  0  0  0
   18.5915  -17.3349   -8.7529 H   0  0  0  0  0  0  0  0  0  0  0  0
   17.7925  -16.9914   -9.5710 H   0  0  0  0  0  0  0  0  0  0  0  0
   16.4466  -17.1103  -10.3717 H   0  0  0  0  0  0  0  0  0  0  0  0
   15.4019  -17.6167  -10.6504 H   0  0  0  0  0  0  0  0  0  0  0  0
   14.2715  -18.6981  -10.5104 H   0  0  0  0  0  0  0  0  0  0  0  0
   13.7913  -20.9927   -8.9314 H   0  0  0  0  0  0  0  0  0  0  0  0
   12.8635  -19.0971  -11.1207 H   0  0  0  0  0  0  0  0  0  0  0  0
   13.1481  -20.8360   -9.9393 H   0  0  0  0  0  0  0  0  0  0  0  0
   14.4586  -18.1784  -10.3705 H   0  0  0  0  0  0  0  0  0  0  0  0
   14.0887  -21.5160   -8.2994 H   0  0  0  0  0  0  0  0  0  0  0  0
  1  2  1  0
  2  3  1  0
  3  4  1  0
  4  5  1  0
  5  6  1  0
  6  7  1  0
  7  8  1  0
  8  9  1  0
  9 10  1  0
 10 11  1  0
 11 12  2  0
 10 13  1  0
 13 14  1  0
 14 15  1  0
 15 16  1  0
 16 17  1  0
 17 18  1  0
 18 19  1  0
 19 20  1  0
 20 21  1  0
 21 22  1  0
 22 23  1  0
 22 24  1  0
 15  2  1  0
 24 16  1  0
  8  6  1  0
 24 17  1  0
  1 25  1  0
  1 26  1  0
  1 27  1  0
  2 28  1  0
  3 29  1  0
  3 30  1  0
  4 31  1  0
  4 32  1  0
  5 33  1  0
  5 34  1  0
  6 35  1  0
  7 36  1  0
  8 37  1  0
  9 38  1  0
  9 39  1  0
 10 40  1  0
 11 41  1  0
 13 42  1  0
 13 43  1  0
 14 44  1  0
 15 45  1  0
 16 46  1  0
 17 47  1  0
 18 48  1  0
 18 49  1  0
 19 50  1  0
 19 51  1  0
 20 52  1  0
 20 53  1  0
 21 54  1  0
 21 55  1  0
 22 56  1  0
 23 57  1  0
 23 58  1  0
 23 59  1  0
 24 60  1  0
M  END
