
     RDKit          2D

 44 45  0  0  0  0  0  0  0  0999 V2000
   15.8950  -16.9766   -9.0168 C   0  0  0  0  0  0  0  0  0  0  0  0
   16.3623  -18.3174   -9.5003 C   0  0  0  0  0  0  0  0  0  0  0  0
   16.8296  -19.6583   -9.9838 C   0  0  0  0  0  0  0  0  0  0  0  0
   17.2969  -20.9991  -10.4673 C   0  0  0  0  0  0  0  0  0  0  0  0
   17.7642  -22.3400  -10.9508 C   0  0  0  0  0  0  0  0  0  0  0  0
   18.2316  -23.6808  -11.4343 C   0  0  0  0  0  0  0  0  0  0  0  0
   18.6989  -25.0216  -11.9178 C   0  0  0  0  0  0  0  0  0  0  0  0
   19.1661  -26.3626  -12.4013 O   0  0  0  0  0  0  0  0  0  0  0  0
   18.7201  -20.5885  -10.2306 C   0  0  0  0  0  0  0  0  0  0  0  0
   19.1873  -21.9300  -10.7122 C   0  0  0  0  0  0  0  0  0  0  0  0
   20.6104  -21.5194  -10.4755 C   0  0  0  0  0  0  0  0  0  0  0  0
   20.1433  -20.1778   -9.9940 C   0  0  0  0  0  0  0  0  0  0  0  0
   19.6761  -18.8362   -9.5124 O   0  0  0  0  0  0  0  0  0  0  0  0
   14.9921  -18.8802   -9.2641 C   0  0  0  0  0  0  0  0  0  0  0  0
   13.6219  -19.4429   -9.0279 C   0  0  0  0  0  0  0  0  0  0  0  0
   12.9235  -18.2200   -8.5115 O   0  0  0  0  0  0  0  0  0  0  0  0
   12.4942  -20.4304   -8.9710 C   0  0  0  0  0  0  0  0  0  0  0  0
   13.8444  -20.8613   -9.4622 S   0  0  0  0  0  0  0  0  0  0  0  0
   15.4277  -15.6358   -8.5333 H   0  0  0  0  0  0  0  0  0  0  0  0
   17.2659  -16.4146   -9.2503 H   0  0  0  0  0  0  0  0  0  0  0  0
   14.4773  -17.3710   -8.7260 H   0  0  0  0  0  0  0  0  0  0  0  0
   17.7326  -17.7547   -9.7365 H   0  0  0  0  0  0  0  0  0  0  0  0
   17.9459  -18.8508  -10.5770 H   0  0  0  0  0  0  0  0  0  0  0  0
   15.7133  -20.4658   -9.3906 H   0  0  0  0  0  0  0  0  0  0  0  0
   15.8738  -21.4098  -10.7039 H   0  0  0  0  0  0  0  0  0  0  0  0
   16.3935  -22.9022  -10.7162 H   0  0  0  0  0  0  0  0  0  0  0  0
   18.5311  -22.2224  -11.1339 H   0  0  0  0  0  0  0  0  0  0  0  0
   16.8605  -24.2428  -11.2010 H   0  0  0  0  0  0  0  0  0  0  0  0
   19.6493  -23.2865  -11.7248 H   0  0  0  0  0  0  0  0  0  0  0  0
   17.3271  -25.5829  -11.6866 H   0  0  0  0  0  0  0  0  0  0  0  0
   20.0706  -24.4605  -12.1489 H   0  0  0  0  0  0  0  0  0  0  0  0
   20.5868  -26.5463  -12.8456 H   0  0  0  0  0  0  0  0  0  0  0  0
   18.4298  -19.2068   -9.7238 H   0  0  0  0  0  0  0  0  0  0  0  0
   19.8245  -23.2116  -11.1613 H   0  0  0  0  0  0  0  0  0  0  0  0
   17.9195  -22.6531  -11.0583 H   0  0  0  0  0  0  0  0  0  0  0  0
   22.0336  -21.1087  -10.2389 H   0  0  0  0  0  0  0  0  0  0  0  0
   21.0777  -22.8610  -10.9570 H   0  0  0  0  0  0  0  0  0  0  0  0
   21.5664  -19.7671   -9.7573 H   0  0  0  0  0  0  0  0  0  0  0  0
   20.6747  -17.8106   -9.0646 H   0  0  0  0  0  0  0  0  0  0  0  0
   14.3610  -17.6178   -8.7560 H   0  0  0  0  0  0  0  0  0  0  0  0
   15.2890  -20.2798   -9.7146 H   0  0  0  0  0  0  0  0  0  0  0  0
   11.4760  -18.2901   -8.1244 H   0  0  0  0  0  0  0  0  0  0  0  0
   11.4042  -19.5504   -8.4348 H   0  0  0  0  0  0  0  0  0  0  0  0
   11.7450  -21.7235   -9.1003 H   0  0  0  0  0  0  0  0  0  0  0  0
  1  2  1  0
  2  3  1  0
  3  4  1  0
  4  5  1  0
  5  6  1  0
  6  7  1  0
  7  8  1  0
  4  9  1  0
  9 10  1  0
 10 11  1  0
 11 12  1  0
 12 13  1  0
  2 14  1  0
 14 15  1  0
 15 16  1  0
 15 17  1  0
 17 18  1  0
 12  9  1  0
 18 15  1  0
  1 19  1  0
  1 20  1  0
  1 21  1  0
  2 22  1  0
  3 23  1  0
  3 24  1  0
  4 25  1  0
  5 26  1  0
  5 27  1  0
  6 28  1  0
  6 29  1  0
  7 30  1  0
  7 31  1  0
  8 32  1  0
  9 33  1  0
 10 34  1  0
 10 35  1  0
 11 36  1  0
 11 37  1  0
 12 38  1  0
 13 39  1  0
 14 40  1  0
 14 41  1  0
 16 42  1  0
 17 43  1  0
 17 44  1  0
M  END
