
     RDKit          2D

 57 61  0  0  0  0  0  0  0  0999 V2000
   22.0750  -20.4500  -17.7263 C   0  0  0  0  0  0  0  0  0  0  0  0
   21.9475  -20.0654  -16.2820 O   0  0  0  0  0  0  0  0  0  0  0  0
   21.0550  -20.8555  -15.3715 C   0  0  0  0  0  0  0  0  0  0  0  0
   20.1625  -21.6457  -14.4609 C   0  0  0  0  0  0  0  0  0  0  0  0
   19.2701  -22.4358  -13.5503 C   0  0  0  0  0  0  0  0  0  0  0  0
   19.4775  -21.6865  -12.2677 C   0  0  0  0  0  0  0  0  0  0  0  0
   19.3500  -21.3019  -10.8234 C   0  0  0  0  0  0  0  0  0  0  0  0
   18.5851  -22.4766  -11.3571 C   0  0  0  0  0  0  0  0  0  0  0  0
   17.8723  -22.9113  -10.1108 C   0  0  0  0  0  0  0  0  0  0  0  0
   17.1596  -23.3459   -8.8646 C   0  0  0  0  0  0  0  0  0  0  0  0
   16.4468  -23.7806   -7.6184 C   0  0  0  0  0  0  0  0  0  0  0  0
   15.9997  -23.8072   -6.1868 C   0  0  0  0  0  0  0  0  0  0  0  0
   16.9642  -22.7567   -6.6519 C   0  0  0  0  0  0  0  0  0  0  0  0
   17.1716  -22.0073   -5.3692 N   0  0  0  0  0  0  0  0  0  0  0  0
   16.7772  -20.9069   -4.4291 C   0  0  0  0  0  0  0  0  0  0  0  0
   17.9253  -21.8097   -4.0874 C   0  0  0  0  0  0  0  0  0  0  0  0
   18.3290  -21.2284   -2.7648 C   0  0  0  0  0  0  0  0  0  0  0  0
   18.7326  -20.6472   -1.4422 C   0  0  0  0  0  0  0  0  0  0  0  0
   19.1363  -20.0660   -0.1197 N   0  0  0  0  0  0  0  0  0  0  0  0
   18.3056  -23.4863  -13.0852 C   0  0  0  0  0  0  0  0  0  0  0  0
   18.7527  -23.4597  -14.5169 C   0  0  0  0  0  0  0  0  0  0  0  0
   18.2353  -24.4835  -15.4833 C   0  0  0  0  0  0  0  0  0  0  0  0
   19.1998  -23.4331  -15.9484 C   0  0  0  0  0  0  0  0  0  0  0  0
   22.2026  -20.8346  -19.1705 H   0  0  0  0  0  0  0  0  0  0  0  0
   22.3702  -19.0226  -18.0803 H   0  0  0  0  0  0  0  0  0  0  0  0
   21.7799  -21.8774  -17.3722 H   0  0  0  0  0  0  0  0  0  0  0  0
   20.6905  -21.7585  -16.5123 H   0  0  0  0  0  0  0  0  0  0  0  0
   21.4196  -19.9525  -14.2306 H   0  0  0  0  0  0  0  0  0  0  0  0
   20.5880  -20.7539  -13.5411 H   0  0  0  0  0  0  0  0  0  0  0  0
   19.9074  -22.4440  -15.7050 H   0  0  0  0  0  0  0  0  0  0  0  0
   20.3435  -20.6849  -12.5312 H   0  0  0  0  0  0  0  0  0  0  0  0
   20.2701  -20.1179  -10.7869 H   0  0  0  0  0  0  0  0  0  0  0  0
   19.0445  -21.1943   -9.5129 H   0  0  0  0  0  0  0  0  0  0  0  0
   18.2594  -23.0570  -11.7959 H   0  0  0  0  0  0  0  0  0  0  0  0
   18.2844  -21.8955   -9.3228 H   0  0  0  0  0  0  0  0  0  0  0  0
   17.3235  -24.1018  -10.8399 H   0  0  0  0  0  0  0  0  0  0  0  0
   16.5103  -24.4636   -9.6257 H   0  0  0  0  0  0  0  0  0  0  0  0
   17.8177  -22.2998   -8.3214 H   0  0  0  0  0  0  0  0  0  0  0  0
   15.6819  -24.9553   -8.1521 H   0  0  0  0  0  0  0  0  0  0  0  0
   15.0796  -24.9912   -6.2233 H   0  0  0  0  0  0  0  0  0  0  0  0
   15.8722  -23.4226   -4.7425 H   0  0  0  0  0  0  0  0  0  0  0  0
   17.8018  -21.9520   -7.3400 H   0  0  0  0  0  0  0  0  0  0  0  0
   15.6274  -20.3149   -5.1890 H   0  0  0  0  0  0  0  0  0  0  0  0
   16.6536  -20.0244   -3.4151 H   0  0  0  0  0  0  0  0  0  0  0  0
   18.9333  -22.9144   -4.2050 H   0  0  0  0  0  0  0  0  0  0  0  0
   19.4232  -22.2481   -2.6506 H   0  0  0  0  0  0  0  0  0  0  0  0
   17.3958  -20.2539   -2.7217 H   0  0  0  0  0  0  0  0  0  0  0  0
   19.6789  -21.7913   -1.2282 H   0  0  0  0  0  0  0  0  0  0  0  0
   17.7864  -19.5032   -1.6562 H   0  0  0  0  0  0  0  0  0  0  0  0
   18.3899  -18.8929    0.4432 H   0  0  0  0  0  0  0  0  0  0  0  0
   20.2863  -20.6579    0.6401 H   0  0  0  0  0  0  0  0  0  0  0  0
   18.1763  -23.3569  -12.3094 H   0  0  0  0  0  0  0  0  0  0  0  0
   17.3853  -24.6703  -13.1218 H   0  0  0  0  0  0  0  0  0  0  0  0
   17.3428  -25.2737  -14.5727 H   0  0  0  0  0  0  0  0  0  0  0  0
   18.0279  -25.2329  -16.7660 H   0  0  0  0  0  0  0  0  0  0  0  0
   19.3273  -23.8177  -17.3926 H   0  0  0  0  0  0  0  0  0  0  0  0
   20.1487  -22.2800  -16.0901 H   0  0  0  0  0  0  0  0  0  0  0  0
  1  2  1  0
  2  3  1  0
  3  4  1  0
  4  5  1  0
  5  6  1  0
  6  7  1  0
  7  8  1  0
  8  9  1  0
  9 10  1  0
 10 11  1  0
 11 12  1  0
 12 13  1  0
 13 14  1  0
 14 15  1  0
 15 16  1  0
 16 17  1  0
 17 18  1  0
 18 19  1  0
  5 20  1  0
 20 21  1  0
 21 22  1  0
 22 23  1  0
 21  5  1  0
  8  6  1  0
 13 11  1  0
 16 14  1  0
 23 21  1  0
  1 24  1  0
  1 25  1  0
  1 26  1  0
  3 27  1  0
  3 28  1  0
  4 29  1  0
  4 30  1  0
  6 31  1  0
  7 32  1  0
  7 33  1  0
  8 34  1  0
  9 35  1  0
  9 36  1  0
 10 37  1  0
 10 38  1  0
 11 39  1  0
 12 40  1  0
 12 41  1  0
 13 42  1  0
 15 43  1  0
 15 44  1  0
 16 45  1  0
 17 46  1  0
 17 47  1  0
 18 48  1  0
 18 49  1  0
 19 50  1  0
 19 51  1  0
 20 52  1  0
 20 53  1  0
 22 54  1  0
 22 55  1  0
 23 56  1  0
 23 57  1  0
M  END
