
     RDKit          2D

 80 85  0  0  0  0  0  0  0  0999 V2000
   16.7749  -18.0231  -10.5359 C   0  0  0  0  0  0  0  0  0  0  0  0
   17.1132  -18.3171   -9.1045 C   0  0  0  0  0  0  0  0  0  0  0  0
   17.4516  -18.6111   -7.6731 C   0  0  0  0  0  0  0  0  0  0  0  0
   17.0038  -20.0305   -7.8588 O   0  0  0  0  0  0  0  0  0  0  0  0
   17.7900  -18.9050   -6.2416 C   0  0  0  0  0  0  0  0  0  0  0  0
   18.1284  -19.1990   -4.8102 C   0  0  0  0  0  0  0  0  0  0  0  0
   17.6825  -20.6190   -4.9964 C   0  0  0  0  0  0  0  0  0  0  0  0
   17.2366  -22.0391   -5.1826 C   0  0  0  0  0  0  0  0  0  0  0  0
   16.7907  -23.4591   -5.3689 C   0  0  0  0  0  0  0  0  0  0  0  0
   16.3449  -24.8791   -5.5551 C   0  0  0  0  0  0  0  0  0  0  0  0
   15.8990  -26.2992   -5.7414 N   0  0  0  0  0  0  0  0  0  0  0  0
   15.9695  -27.2640   -4.5950 N   0  0  0  0  0  0  0  0  0  0  0  0
   18.5742  -17.7789   -4.6239 C   0  0  0  0  0  0  0  0  0  0  0  0
   18.9126  -18.0729   -3.1924 C   0  0  0  0  0  0  0  0  0  0  0  0
   18.4668  -19.4930   -3.3786 C   0  0  0  0  0  0  0  0  0  0  0  0
   18.8051  -19.7870   -1.9472 C   0  0  0  0  0  0  0  0  0  0  0  0
   18.8752  -20.7515   -0.8007 C   0  0  0  0  0  0  0  0  0  0  0  0
   19.3211  -19.3315   -0.6144 C   0  0  0  0  0  0  0  0  0  0  0  0
   19.8371  -18.8761    0.7184 C   0  0  0  0  0  0  0  0  0  0  0  0
   20.3531  -18.4207    2.0512 C   0  0  0  0  0  0  0  0  0  0  0  0
   19.9562  -17.4759    0.1938 O   0  0  0  0  0  0  0  0  0  0  0  0
   20.2205  -16.3411    1.1384 C   0  0  0  0  0  0  0  0  0  0  0  0
   19.2510  -18.3669   -1.7610 C   0  0  0  0  0  0  0  0  0  0  0  0
   17.8994  -17.1915   -7.4875 C   0  0  0  0  0  0  0  0  0  0  0  0
   17.6094  -16.7507   -8.8915 C   0  0  0  0  0  0  0  0  0  0  0  0
   17.9771  -15.3011   -9.0076 C   0  0  0  0  0  0  0  0  0  0  0  0
   17.5166  -15.4600  -10.4262 C   0  0  0  0  0  0  0  0  0  0  0  0
   17.0561  -15.6191  -11.8449 C   0  0  0  0  0  0  0  0  0  0  0  0
   17.8384  -14.0193  -10.6921 N   0  0  0  0  0  0  0  0  0  0  0  0
   18.4943  -14.8460   -7.6751 C   0  0  0  0  0  0  0  0  0  0  0  0
   18.4463  -16.0144   -6.7356 C   0  0  0  0  0  0  0  0  0  0  0  0
   18.9976  -15.2831   -5.5476 C   0  0  0  0  0  0  0  0  0  0  0  0
   18.2831  -17.3356   -6.0444 C   0  0  0  0  0  0  0  0  0  0  0  0
   16.3845  -17.9043  -11.9794 H   0  0  0  0  0  0  0  0  0  0  0  0
   16.3279  -19.4428  -10.7219 H   0  0  0  0  0  0  0  0  0  0  0  0
   17.1773  -16.5781  -10.5260 H   0  0  0  0  0  0  0  0  0  0  0  0
   16.5376  -19.6618   -9.4362 H   0  0  0  0  0  0  0  0  0  0  0  0
   17.3734  -17.4781   -9.2183 H   0  0  0  0  0  0  0  0  0  0  0  0
   16.4638  -20.6500   -9.1136 H   0  0  0  0  0  0  0  0  0  0  0  0
   18.0496  -18.1758   -6.0514 H   0  0  0  0  0  0  0  0  0  0  0  0
   17.3014  -20.2773   -6.5996 H   0  0  0  0  0  0  0  0  0  0  0  0
   17.2912  -20.5001   -6.4395 H   0  0  0  0  0  0  0  0  0  0  0  0
   17.9651  -21.0842   -3.5986 H   0  0  0  0  0  0  0  0  0  0  0  0
   17.5762  -22.3334   -3.7515 H   0  0  0  0  0  0  0  0  0  0  0  0
   16.8971  -21.7448   -6.6137 H   0  0  0  0  0  0  0  0  0  0  0  0
   16.4533  -23.1654   -6.8006 H   0  0  0  0  0  0  0  0  0  0  0  0
   17.1282  -23.7528   -3.9371 H   0  0  0  0  0  0  0  0  0  0  0  0
   16.0028  -24.5840   -6.9855 H   0  0  0  0  0  0  0  0  0  0  0  0
   16.6869  -25.1741   -4.1248 H   0  0  0  0  0  0  0  0  0  0  0  0
   15.5236  -28.6840   -4.7813 H   0  0  0  0  0  0  0  0  0  0  0  0
   19.0888  -16.4722   -4.0968 H   0  0  0  0  0  0  0  0  0  0  0  0
   18.1841  -17.6603   -6.0673 H   0  0  0  0  0  0  0  0  0  0  0  0
   19.3585  -16.6529   -3.0062 H   0  0  0  0  0  0  0  0  0  0  0  0
   18.0654  -20.9383   -3.3890 H   0  0  0  0  0  0  0  0  0  0  0  0
   18.3405  -21.9854   -1.4653 H   0  0  0  0  0  0  0  0  0  0  0  0
   19.1311  -21.2877    0.5767 H   0  0  0  0  0  0  0  0  0  0  0  0
   19.7180  -20.2763    1.2430 H   0  0  0  0  0  0  0  0  0  0  0  0
   20.8691  -17.9653    3.3840 H   0  0  0  0  0  0  0  0  0  0  0  0
   20.9443  -19.7790    2.2864 H   0  0  0  0  0  0  0  0  0  0  0  0
   19.9861  -16.9894    2.3093 H   0  0  0  0  0  0  0  0  0  0  0  0
   20.4849  -15.2062    2.0830 H   0  0  0  0  0  0  0  0  0  0  0  0
   20.2092  -15.3799   -0.0132 H   0  0  0  0  0  0  0  0  0  0  0  0
   20.2640  -17.1567    2.3965 H   0  0  0  0  0  0  0  0  0  0  0  0
   19.7693  -17.0713   -1.2106 H   0  0  0  0  0  0  0  0  0  0  0  0
   17.0930  -18.0568   -9.4180 H   0  0  0  0  0  0  0  0  0  0  0  0
   17.2787  -16.4319  -10.3194 H   0  0  0  0  0  0  0  0  0  0  0  0
   18.3063  -13.8576   -9.2484 H   0  0  0  0  0  0  0  0  0  0  0  0
   17.9403  -14.0237  -10.3409 H   0  0  0  0  0  0  0  0  0  0  0  0
   16.5956  -15.7780  -13.2636 H   0  0  0  0  0  0  0  0  0  0  0  0
   17.3174  -14.2079  -12.2811 H   0  0  0  0  0  0  0  0  0  0  0  0
   16.6826  -17.0690  -11.7545 H   0  0  0  0  0  0  0  0  0  0  0  0
   17.6643  -13.2792  -11.9852 H   0  0  0  0  0  0  0  0  0  0  0  0
   18.3998  -13.0252   -9.7192 H   0  0  0  0  0  0  0  0  0  0  0  0
   18.6575  -13.5247   -8.3662 H   0  0  0  0  0  0  0  0  0  0  0  0
   19.0544  -13.9676   -6.5959 H   0  0  0  0  0  0  0  0  0  0  0  0
   19.5490  -14.5517   -4.3597 H   0  0  0  0  0  0  0  0  0  0  0  0
   19.2480  -13.9752   -6.2381 H   0  0  0  0  0  0  0  0  0  0  0  0
   18.9520  -16.2976   -4.4437 H   0  0  0  0  0  0  0  0  0  0  0  0
   18.7838  -16.9776   -4.6766 H   0  0  0  0  0  0  0  0  0  0  0  0
   18.0646  -18.7120   -5.4895 H   0  0  0  0  0  0  0  0  0  0  0  0
  1  2  1  0
  2  3  1  0
  3  4  1  0
  3  5  1  0
  5  6  1  0
  6  7  1  0
  7  8  1  0
  8  9  1  0
  9 10  1  0
 10 11  1  0
 11 12  2  3
  6 13  1  0
 13 14  1  0
 14 15  1  0
 15 16  1  0
 16 17  1  0
 17 18  1  0
 18 19  1  0
 19 20  1  0
 19 21  1  0
 21 22  1  0
 18 23  1  0
  3 24  1  0
 24 25  1  0
 25 26  1  0
 26 27  1  0
 27 28  1  0
 27 29  1  0
 26 30  1  0
 30 31  1  0
 31 32  1  0
 31 33  1  0
 15  6  1  0
 18 16  1  0
 31 24  1  0
 23 14  1  0
 33 24  1  0
 23 16  1  0
  1 34  1  0
  1 35  1  0
  1 36  1  0
  2 37  1  0
  2 38  1  0
  4 39  1  0
  5 40  1  0
  5 41  1  0
  7 42  1  0
  7 43  1  0
  8 44  1  0
  8 45  1  0
  9 46  1  0
  9 47  1  0
 10 48  1  0
 10 49  1  0
 12 50  1  0
 13 51  1  0
 13 52  1  0
 14 53  1  0
 15 54  1  0
 17 55  1  0
 17 56  1  0
 19 57  1  0
 20 58  1  0
 20 59  1  0
 20 60  1  0
 22 61  1  0
 22 62  1  0
 22 63  1  0
 23 64  1  0
 25 65  1  0
 25 66  1  0
 26 67  1  0
 27 68  1  0
 28 69  1  0
 28 70  1  0
 28 71  1  0
 29 72  1  0
 29 73  1  0
 30 74  1  0
 30 75  1  0
 32 76  1  0
 32 77  1  0
 32 78  1  0
 33 79  1  0
 33 80  1  0
M  END
