
     RDKit          2D

 94105  0  0  0  0  0  0  0  0999 V2000
   12.8867  -25.0218  -15.6143 C   0  0  0  0  0  0  0  0  0  0  0  0
   14.0934  -24.3126  -15.0750 C   0  0  0  0  0  0  0  0  0  0  0  0
   14.3025  -24.2091  -13.5933 C   0  0  0  0  0  0  0  0  0  0  0  0
   14.5117  -24.1057  -12.1116 C   0  0  0  0  0  0  0  0  0  0  0  0
   13.4160  -24.7674  -11.3296 C   0  0  0  0  0  0  0  0  0  0  0  0
   13.1223  -24.9623   -9.8715 C   0  0  0  0  0  0  0  0  0  0  0  0
   12.5135  -25.3423   -8.5544 C   0  0  0  0  0  0  0  0  0  0  0  0
   13.8025  -24.5762   -8.5916 S   0  0  0  0  0  4  0  0  0  0  0  0
   14.6781  -24.0717   -7.4831 C   0  0  0  0  0  0  0  0  0  0  0  0
   16.9527  -22.7158   -7.8373 C   0  0  0  0  0  0  0  0  0  0  0  0
   18.2425  -21.9500   -7.8184 O   0  0  0  0  0  0  0  0  0  0  0  0
   19.0520  -21.4530   -8.9792 S   0  0  0  0  0  4  0  0  0  0  0  0
   19.9927  -20.9087   -7.9455 C   0  0  0  0  0  0  0  0  0  0  0  0
   20.2864  -20.7139   -9.4034 C   0  0  0  0  0  0  0  0  0  0  0  0
   20.1329  -20.7842  -10.8939 C   0  0  0  0  0  0  0  0  0  0  0  0
   19.9795  -20.8544  -12.3843 C   0  0  0  0  0  0  0  0  0  0  0  0
   18.7717  -21.5989  -10.4457 O   0  0  0  0  0  0  0  0  0  0  0  0
   17.6128  -22.2778  -11.1134 C   0  0  0  0  0  0  0  0  0  0  0  0
   18.2637  -21.8732  -12.4028 C   0  0  0  0  0  0  0  0  0  0  0  0
   16.5512  -22.8963  -11.9737 C   0  0  0  0  0  0  0  0  0  0  0  0
   15.0584  -23.8352   -8.2395 B   0  0  0  0  0  0  0  0  0  0  0  0
   16.1541  -23.1735   -9.0215 C   0  0  0  0  0  0  0  0  0  0  0  0
   16.4478  -22.9786  -10.4795 C   0  0  0  0  0  0  0  0  0  0  0  0
   15.7675  -23.3647  -11.7594 C   0  0  0  0  0  0  0  0  0  0  0  0
   15.7263  -23.3683  -13.2588 C   0  0  0  0  0  0  0  0  0  0  0  0
   15.6850  -23.3718  -14.7583 C   0  0  0  0  0  0  0  0  0  0  0  0
   15.3766  -23.5345  -16.2173 C   0  0  0  0  0  0  0  0  0  0  0  0
   14.8146  -23.8493  -17.5718 O   0  0  0  0  0  0  0  0  0  0  0  0
   16.4723  -22.8728  -16.9993 C   0  0  0  0  0  0  0  0  0  0  0  0
   17.6855  -22.1452  -17.4980 C   0  0  0  0  0  0  0  0  0  0  0  0
   18.7527  -21.5234  -16.6469 C   0  0  0  0  0  0  0  0  0  0  0  0
   19.9659  -20.7958  -17.1456 O   0  0  0  0  0  0  0  0  0  0  0  0
   20.9514  -20.2241  -16.1700 C   0  0  0  0  0  0  0  0  0  0  0  0
   21.7837  -19.7147  -17.3092 N   0  0  0  0  0  2  0  0  0  0  0  0
   22.7692  -19.1430  -16.3337 C   0  0  0  0  0  0  0  0  0  0  0  0
   23.9366  -18.4589  -15.6862 N   0  0  0  0  0  2  0  0  0  0  0  0
   23.8282  -18.5029  -17.1816 C   0  0  0  0  0  0  0  0  0  0  0  0
   23.2867  -18.8058  -18.5473 C   0  0  0  0  0  0  0  0  0  0  0  0
   22.7451  -19.1086  -19.9129 C   0  0  0  0  0  0  0  0  0  0  0  0
   22.2036  -19.4114  -21.2786 C   0  0  0  0  0  0  0  0  0  0  0  0
   21.9371  -19.6524  -15.1944 C   0  0  0  0  0  0  0  0  0  0  0  0
   22.9226  -19.0807  -14.2189 C   0  0  0  0  0  0  0  0  0  0  0  0
   18.3936  -21.7567  -15.2093 C   0  0  0  0  0  0  0  0  0  0  0  0
   16.9713  -22.6095  -14.6387 C   0  0  0  0  0  0  0  0  0  0  0  0
   17.4579  -22.3011  -16.0236 C   0  0  0  0  0  0  0  0  0  0  0  0
   12.6775  -25.1252  -17.0960 H   0  0  0  0  0  0  0  0  0  0  0  0
   11.8891  -25.6274  -14.6719 H   0  0  0  0  0  0  0  0  0  0  0  0
   14.6548  -23.9670  -15.9474 H   0  0  0  0  0  0  0  0  0  0  0  0
   14.8333  -23.4117  -14.1206 H   0  0  0  0  0  0  0  0  0  0  0  0
   13.4423  -25.4206  -13.3872 H   0  0  0  0  0  0  0  0  0  0  0  0
   12.3682  -25.3774  -12.2127 H   0  0  0  0  0  0  0  0  0  0  0  0
   11.9156  -25.6714  -10.4109 H   0  0  0  0  0  0  0  0  0  0  0  0
   11.2880  -26.0634   -9.0322 H   0  0  0  0  0  0  0  0  0  0  0  0
   12.3303  -25.4719   -7.0712 H   0  0  0  0  0  0  0  0  0  0  0  0
   13.6449  -24.6978   -6.5941 H   0  0  0  0  0  0  0  0  0  0  0  0
   15.3377  -23.6980   -6.1887 H   0  0  0  0  0  0  0  0  0  0  0  0
   16.3869  -23.0706   -6.4941 H   0  0  0  0  0  0  0  0  0  0  0  0
   19.2871  -21.3453   -6.6957 H   0  0  0  0  0  0  0  0  0  0  0  0
   21.1784  -20.2129   -7.3455 H   0  0  0  0  0  0  0  0  0  0  0  0
   21.5742  -19.9504   -9.3098 H   0  0  0  0  0  0  0  0  0  0  0  0
   21.4133  -20.0208  -11.0616 H   0  0  0  0  0  0  0  0  0  0  0  0
   19.4531  -21.1868  -10.9990 H   0  0  0  0  0  0  0  0  0  0  0  0
   21.2600  -20.0915  -12.5521 H   0  0  0  0  0  0  0  0  0  0  0  0
   18.6999  -21.6116  -12.5822 H   0  0  0  0  0  0  0  0  0  0  0  0
   19.9833  -20.8312  -13.8842 H   0  0  0  0  0  0  0  0  0  0  0  0
   19.3771  -21.2226  -11.6366 H   0  0  0  0  0  0  0  0  0  0  0  0
   17.1503  -22.5238  -13.1689 H   0  0  0  0  0  0  0  0  0  0  0  0
   19.0454  -21.3923  -13.5892 H   0  0  0  0  0  0  0  0  0  0  0  0
   16.4522  -22.9342  -13.4699 H   0  0  0  0  0  0  0  0  0  0  0  0
   15.9312  -23.3265   -7.5462 H   0  0  0  0  0  0  0  0  0  0  0  0
   16.8749  -22.6964  -12.5191 H   0  0  0  0  0  0  0  0  0  0  0  0
   17.0160  -22.6032  -13.2962 H   0  0  0  0  0  0  0  0  0  0  0  0
   14.4649  -24.1114  -13.5855 H   0  0  0  0  0  0  0  0  0  0  0  0
   14.4028  -24.1309  -14.9301 H   0  0  0  0  0  0  0  0  0  0  0  0
   14.0936  -24.2985  -16.0755 H   0  0  0  0  0  0  0  0  0  0  0  0
   13.5283  -24.6116  -17.6915 H   0  0  0  0  0  0  0  0  0  0  0  0
   15.9104  -23.1875  -18.3538 H   0  0  0  0  0  0  0  0  0  0  0  0
   18.5174  -21.6352  -18.6373 H   0  0  0  0  0  0  0  0  0  0  0  0
   20.1192  -20.7336  -15.0308 H   0  0  0  0  0  0  0  0  0  0  0  0
   25.0752  -17.7577  -17.5552 H   0  0  0  0  0  0  0  0  0  0  0  0
   24.6782  -18.7729  -19.1064 H   0  0  0  0  0  0  0  0  0  0  0  0
   21.8054  -18.9110  -18.3352 H   0  0  0  0  0  0  0  0  0  0  0  0
   21.5600  -19.7872  -19.2925 H   0  0  0  0  0  0  0  0  0  0  0  0
   23.9303  -18.4300  -20.5334 H   0  0  0  0  0  0  0  0  0  0  0  0
   23.5922  -19.3511  -21.8426 H   0  0  0  0  0  0  0  0  0  0  0  0
   20.8150  -19.4717  -20.7146 H   0  0  0  0  0  0  0  0  0  0  0  0
   21.6621  -19.7142  -22.6442 H   0  0  0  0  0  0  0  0  0  0  0  0
   21.1048  -20.1619  -14.0552 H   0  0  0  0  0  0  0  0  0  0  0  0
   23.9669  -18.4453  -15.0881 H   0  0  0  0  0  0  0  0  0  0  0  0
   22.0921  -19.5931  -13.0796 H   0  0  0  0  0  0  0  0  0  0  0  0
   23.9082  -18.5091  -13.2433 H   0  0  0  0  0  0  0  0  0  0  0  0
   19.4076  -21.1676  -14.2741 H   0  0  0  0  0  0  0  0  0  0  0  0
   17.6516  -22.2233  -13.3588 H   0  0  0  0  0  0  0  0  0  0  0  0
   18.7467  -21.5366  -15.9563 H   0  0  0  0  0  0  0  0  0  0  0  0
  1  2  2  0
  2  3  1  0
  3  4  1  0
  4  5  2  0
  5  6  1  0
  6  7  1  0
  7  8  1  0
  8  9  1  0
  9 10  1  0
 10 11  1  0
 11 12  1  0
 12 13  1  0
 13 14  1  0
 14 15  1  0
 15 16  1  0
 12 17  1  0
 17 18  1  0
 18 19  1  0
 18 20  1  0
 20 21  1  0
 21 22  1  0
 22 23  1  0
 23 24  1  0
 24 25  1  0
 25 26  1  0
 26 27  1  0
 27 28  1  0
 27 29  1  0
 29 30  1  0
 30 31  1  0
 31 32  1  0
 32 33  1  0
 33 34  1  0
 34 35  1  0
 35 36  1  0
 36 37  1  0
 37 38  1  0
 38 39  1  0
 39 40  1  0
 35 41  1  0
 41 42  1  0
 31 43  2  0
 43 44  1  0
 44 45  1  0
 24  4  1  0
 44 26  1  0
  8  6  1  0
 22 10  1  0
 45 29  1  0
 21  8  1  0
 45 30  1  0
 14 12  1  0
 23 18  1  0
 41 33  1  0
 23 20  1  0
 37 35  1  0
  1 46  1  0
  1 47  1  0
  2 48  1  0
  3 49  1  0
  3 50  1  0
  5 51  1  0
  6 52  1  0
  7 53  1  0
  7 54  1  0
  9 55  1  0
  9 56  1  0
 10 57  1  0
 13 58  1  0
 13 59  1  0
 14 60  1  0
 15 61  1  0
 15 62  1  0
 16 63  1  0
 16 64  1  0
 16 65  1  0
 19 66  1  0
 19 67  1  0
 19 68  1  0
 20 69  1  0
 22 70  1  0
 24 71  1  0
 25 72  1  0
 25 73  1  0
 26 74  1  0
 27 75  1  0
 28 76  1  0
 29 77  1  0
 30 78  1  0
 33 79  1  0
 37 80  1  0
 38 81  1  0
 38 82  1  0
 39 83  1  0
 39 84  1  0
 40 85  1  0
 40 86  1  0
 40 87  1  0
 41 88  1  0
 42 89  1  0
 42 90  1  0
 42 91  1  0
 43 92  1  0
 44 93  1  0
 45 94  1  0
M  RAD  2  34   2  36   2
M  END
