
     RDKit          2D

100106  0  0  0  0  0  0  0  0999 V2000
    6.1728   19.4319    7.4870 C   0  0  0  0  0  0  0  0  0  0  0  0
    5.5709   20.3950    6.5070 C   0  0  0  0  0  0  0  0  0  0  0  0
    4.3467   21.1774    6.8799 C   0  0  0  0  0  0  0  0  0  0  0  0
    4.1458   21.9636    5.6183 C   0  0  0  0  0  0  0  0  0  0  0  0
    3.2003   22.1385    6.7696 C   0  0  0  0  0  0  0  0  0  0  0  0
    2.5779   21.9579    8.1224 C   0  0  0  0  0  0  0  0  0  0  0  0
    3.2590   21.1082    9.1539 C   0  0  0  0  0  0  0  0  0  0  0  0
    4.4051   20.8380    8.1085 C   0  0  0  0  0  0  0  0  0  0  0  0
    5.6930   20.2523    7.6103 C   0  0  0  0  0  0  0  0  0  0  0  0
    6.9809   19.6667    7.1119 C   0  0  0  0  0  0  0  0  0  0  0  0
    5.4874   20.9267    6.2862 O   0  0  0  0  0  0  0  0  0  0  0  0
    4.5416   21.3404    6.7018 C   0  0  0  0  0  0  0  0  0  0  0  0
    5.3887   21.3348    5.4638 O   0  0  0  0  0  0  0  0  0  0  0  0
    4.7076   22.1846    4.4322 C   0  0  0  0  0  0  0  0  0  0  0  0
    3.1911   23.0254    4.6563 C   0  0  0  0  0  0  0  0  0  0  0  0
    2.4244   22.9608    5.9440 C   0  0  0  0  0  0  0  0  0  0  0  0
    1.4109   23.1295    7.0369 C   0  0  0  0  0  0  0  0  0  0  0  0
    1.2744   22.6270    8.4436 C   0  0  0  0  0  0  0  0  0  0  0  0
    0.1286   23.5039    8.0335 C   0  0  0  0  0  0  0  0  0  0  0  0
   -0.2869   23.1713    9.4359 C   0  0  0  0  0  0  0  0  0  0  0  0
   -1.5656   23.7253    9.9907 C   0  0  0  0  0  0  0  0  0  0  0  0
   -2.4290   24.6120    9.1430 C   0  0  0  0  0  0  0  0  0  0  0  0
   -2.0135   24.9446    7.7406 C   0  0  0  0  0  0  0  0  0  0  0  0
   -2.0461   25.5416    6.3649 C   0  0  0  0  0  0  0  0  0  0  0  0
   -2.0787   26.1387    4.9892 C   0  0  0  0  0  0  0  0  0  0  0  0
   -2.1112   26.7357    3.6135 C   0  0  0  0  0  0  0  0  0  0  0  0
   -2.1438   27.3327    2.2379 C   0  0  0  0  0  0  0  0  0  0  0  0
   -3.3504   26.2094    6.6856 C   0  0  0  0  0  0  0  0  0  0  0  0
   -4.6546   26.8772    7.0063 C   0  0  0  0  0  0  0  0  0  0  0  0
   -5.9590   27.5450    7.3269 C   0  0  0  0  0  0  0  0  0  0  0  0
   -5.9248   26.9507    8.7038 O   0  0  0  0  0  0  0  0  0  0  0  0
   -7.2633   28.2127    7.6476 C   0  0  0  0  0  0  0  0  0  0  0  0
   -8.5676   28.8805    7.9683 C   0  0  0  0  0  0  0  0  0  0  0  0
   -9.8719   29.5483    8.2891 C   0  0  0  0  0  0  0  0  0  0  0  0
  -10.6840   30.4252    7.3828 O   0  0  0  0  0  0  0  0  0  0  0  0
   -8.5909   29.4927    6.5991 C   0  0  0  0  0  0  0  0  0  0  0  0
   -8.6141   30.1048    5.2299 C   0  0  0  0  0  0  0  0  0  0  0  0
   -9.8840   30.8255    5.5737 O   0  0  0  0  0  0  0  0  0  0  0  0
   -8.6374   30.7170    3.8607 N   0  0  0  0  0  0  0  0  0  0  0  0
   -9.2649   29.9750    2.7180 C   0  0  0  0  0  0  0  0  0  0  0  0
   -0.7347   24.3905    7.1859 O   0  0  0  0  0  0  0  0  0  0  0  0
    1.9555   21.7772    9.4751 C   0  0  0  0  0  0  0  0  0  0  0  0
    3.7213   22.2197    5.8052 C   0  0  0  0  0  0  0  0  0  0  0  0
    7.3864   18.5749    7.2811 H   0  0  0  0  0  0  0  0  0  0  0  0
    5.8240   19.0128    8.8844 H   0  0  0  0  0  0  0  0  0  0  0  0
    6.0602   20.6971    5.1216 H   0  0  0  0  0  0  0  0  0  0  0  0
    4.4204   20.4641    8.1973 H   0  0  0  0  0  0  0  0  0  0  0  0
    3.8198   22.8139    4.4264 H   0  0  0  0  0  0  0  0  0  0  0  0
    5.1673   21.6842    4.5560 H   0  0  0  0  0  0  0  0  0  0  0  0
    2.3741   23.1551    6.0389 H   0  0  0  0  0  0  0  0  0  0  0  0
    4.3204   20.2158    9.7258 H   0  0  0  0  0  0  0  0  0  0  0  0
    5.0765   19.9907    9.1484 H   0  0  0  0  0  0  0  0  0  0  0  0
    6.3465   19.4129    8.6677 H   0  0  0  0  0  0  0  0  0  0  0  0
    8.2343   19.1680    6.4560 H   0  0  0  0  0  0  0  0  0  0  0  0
    7.3404   18.9230    8.3640 H   0  0  0  0  0  0  0  0  0  0  0  0
    6.9355   20.2675    5.7382 H   0  0  0  0  0  0  0  0  0  0  0  0
    6.3922   20.8648    5.0915 H   0  0  0  0  0  0  0  0  0  0  0  0
    5.3535   21.3662    5.4407 H   0  0  0  0  0  0  0  0  0  0  0  0
    5.8846   21.8153    3.5789 H   0  0  0  0  0  0  0  0  0  0  0  0
    4.2726   22.9571    3.2223 H   0  0  0  0  0  0  0  0  0  0  0  0
    3.3276   23.5279    3.2496 H   0  0  0  0  0  0  0  0  0  0  0  0
    1.4788   23.8545    5.1978 H   0  0  0  0  0  0  0  0  0  0  0  0
    0.1120   23.8616    7.2001 H   0  0  0  0  0  0  0  0  0  0  0  0
    0.8809   23.9351    5.8880 H   0  0  0  0  0  0  0  0  0  0  0  0
    0.6710   23.7478    6.6565 H   0  0  0  0  0  0  0  0  0  0  0  0
   -0.2543   22.5743   10.8116 H   0  0  0  0  0  0  0  0  0  0  0  0
    1.0033   22.4099    9.3590 H   0  0  0  0  0  0  0  0  0  0  0  0
   -2.6788   24.0052   10.9562 H   0  0  0  0  0  0  0  0  0  0  0  0
   -1.0890   22.9359   11.1737 H   0  0  0  0  0  0  0  0  0  0  0  0
   -3.6423   25.4600    8.9007 H   0  0  0  0  0  0  0  0  0  0  0  0
   -3.2424   24.5839   10.4030 H   0  0  0  0  0  0  0  0  0  0  0  0
   -3.3176   25.6427    7.9889 H   0  0  0  0  0  0  0  0  0  0  0  0
   -0.7417   24.8738    6.0442 H   0  0  0  0  0  0  0  0  0  0  0  0
   -0.7741   25.4712    4.6687 H   0  0  0  0  0  0  0  0  0  0  0  0
   -3.3773   26.8739    5.1397 H   0  0  0  0  0  0  0  0  0  0  0  0
   -3.4110   27.4106    3.9372 H   0  0  0  0  0  0  0  0  0  0  0  0
   -0.8113   26.0607    3.2898 H   0  0  0  0  0  0  0  0  0  0  0  0
   -2.1764   27.9298    0.8622 H   0  0  0  0  0  0  0  0  0  0  0  0
   -1.1083   26.3463    1.7853 H   0  0  0  0  0  0  0  0  0  0  0  0
   -3.1792   28.3191    2.6905 H   0  0  0  0  0  0  0  0  0  0  0  0
   -3.5075   26.9381    5.3840 H   0  0  0  0  0  0  0  0  0  0  0  0
   -3.6677   25.7381    8.0738 H   0  0  0  0  0  0  0  0  0  0  0  0
   -4.6899   27.4699    5.6288 H   0  0  0  0  0  0  0  0  0  0  0  0
   -4.6195   26.2844    8.3838 H   0  0  0  0  0  0  0  0  0  0  0  0
   -5.9933   28.1393    5.9501 H   0  0  0  0  0  0  0  0  0  0  0  0
   -6.9466   27.1248    9.7879 H   0  0  0  0  0  0  0  0  0  0  0  0
   -7.6233   28.2088    6.1915 H   0  0  0  0  0  0  0  0  0  0  0  0
   -6.9033   28.2167    9.1039 H   0  0  0  0  0  0  0  0  0  0  0  0
   -8.5443   28.2684    9.3375 H   0  0  0  0  0  0  0  0  0  0  0  0
  -10.4947   29.3670    9.6416 H   0  0  0  0  0  0  0  0  0  0  0  0
   -9.8975   30.2150    6.7440 H   0  0  0  0  0  0  0  0  0  0  0  0
   -7.2773   28.8402    6.2850 H   0  0  0  0  0  0  0  0  0  0  0  0
   -7.3566   29.4642    4.7219 H   0  0  0  0  0  0  0  0  0  0  0  0
  -10.6668   31.7480    4.6871 H   0  0  0  0  0  0  0  0  0  0  0  0
   -8.0331   32.0711    3.6342 H   0  0  0  0  0  0  0  0  0  0  0  0
   -9.8923   29.2331    1.5753 H   0  0  0  0  0  0  0  0  0  0  0  0
  -10.5842   30.6198    3.0238 H   0  0  0  0  0  0  0  0  0  0  0  0
   -8.0318   29.2446    2.2752 H   0  0  0  0  0  0  0  0  0  0  0  0
    1.3331   21.5966   10.8279 H   0  0  0  0  0  0  0  0  0  0  0  0
    2.5254   22.6173    6.6188 H   0  0  0  0  0  0  0  0  0  0  0  0
  1  2  2  3
  2  3  1  0
  3  4  1  0
  4  5  1  0
  5  6  1  0
  6  7  1  0
  7  8  1  0
  8  9  1  0
  9 10  1  0
  9 11  1  0
  8 12  1  0
 12 13  1  0
 13 14  1  0
 14 15  1  0
 15 16  1  0
 16 17  1  0
 17 18  1  0
 18 19  1  0
 19 20  1  0
 20 21  1  0
 21 22  1  0
 22 23  1  0
 23 24  1  0
 24 25  1  0
 25 26  1  0
 26 27  1  0
 24 28  1  0
 28 29  1  0
 29 30  1  0
 30 31  1  0
 30 32  1  0
 32 33  1  0
 33 34  1  0
 34 35  2  0
 33 36  1  0
 36 37  1  0
 37 38  1  0
 37 39  1  0
 39 40  1  0
 23 41  1  0
 18 42  1  0
 16 43  1  0
  5  3  1  0
 18  6  1  0
 41 19  1  0
 42  6  1  0
 42  7  1  0
 43 12  1  0
 43 15  1  0
  1 44  1  0
  1 45  1  0
  2 46  1  0
  3 47  1  0
  4 48  1  0
  4 49  1  0
  5 50  1  0
  7 51  1  0
  8 52  1  0
  9 53  1  0
 10 54  1  0
 10 55  1  0
 10 56  1  0
 11 57  1  0
 12 58  1  0
 14 59  1  0
 14 60  1  0
 15 61  1  0
 16 62  1  0
 17 63  1  0
 17 64  1  0
 19 65  1  0
 20 66  1  0
 20 67  1  0
 21 68  1  0
 21 69  1  0
 22 70  1  0
 22 71  1  0
 23 72  1  0
 24 73  1  0
 25 74  1  0
 25 75  1  0
 26 76  1  0
 26 77  1  0
 27 78  1  0
 27 79  1  0
 27 80  1  0
 28 81  1  0
 28 82  1  0
 29 83  1  0
 29 84  1  0
 30 85  1  0
 31 86  1  0
 32 87  1  0
 32 88  1  0
 33 89  1  0
 34 90  1  0
 36 91  1  0
 36 92  1  0
 37 93  1  0
 38 94  1  0
 39 95  1  0
 40 96  1  0
 40 97  1  0
 40 98  1  0
 42 99  1  0
 43100  1  0
M  END
