
     RDKit          2D

118123  0  0  0  0  0  0  0  0999 V2000
   17.4293  -20.6611   -9.5101 C   0  0  0  0  0  0  0  0  0  0  0  0
   17.5079  -19.2109   -9.1350 C   0  0  0  0  0  0  0  0  0  0  0  0
   18.8241  -18.6080   -8.7424 C   0  0  0  0  0  0  0  0  0  0  0  0
   20.1403  -18.0052   -8.3499 C   0  0  0  0  0  0  0  0  0  0  0  0
   21.4566  -17.4023   -7.9573 N   0  0  0  0  0  0  0  0  0  0  0  0
   22.4440  -16.7597   -8.8858 C   0  0  0  0  0  0  0  0  0  0  0  0
   23.2207  -16.1889  -10.0351 C   0  0  0  0  0  0  0  0  0  0  0  0
   23.9974  -15.6182  -11.1845 C   0  0  0  0  0  0  0  0  0  0  0  0
   24.7741  -15.0476  -12.3338 C   0  0  0  0  0  0  0  0  0  0  0  0
   22.8980  -16.0152  -12.1245 C   0  0  0  0  0  0  0  0  0  0  0  0
   21.7986  -16.4122  -13.0646 C   0  0  0  0  0  0  0  0  0  0  0  0
   23.6141  -16.2964   -8.0695 C   0  0  0  0  0  0  0  0  0  0  0  0
   23.3499  -16.6527   -6.6366 N   0  0  0  0  0  0  0  0  0  0  0  0
   22.0165  -17.3362   -6.5673 N   0  0  0  0  0  0  0  0  0  0  0  0
   21.3585  -17.8613   -5.3257 C   0  0  0  0  0  0  0  0  0  0  0  0
   22.5289  -17.3986   -4.5097 N   0  0  0  0  0  0  0  0  0  0  0  0
   20.7005  -18.3865   -4.0843 C   0  0  0  0  0  0  0  0  0  0  0  0
   20.0425  -18.9116   -2.8428 C   0  0  0  0  0  0  0  0  0  0  0  0
   19.3845  -19.4368   -1.6014 C   0  0  0  0  0  0  0  0  0  0  0  0
   18.7265  -19.9620   -0.3599 C   0  0  0  0  0  0  0  0  0  0  0  0
   18.0684  -20.4871    0.8815 C   0  0  0  0  0  0  0  0  0  0  0  0
   17.4105  -21.0123    2.1230 C   0  0  0  0  0  0  0  0  0  0  0  0
   16.7524  -21.5375    3.3645 C   0  0  0  0  0  0  0  0  0  0  0  0
   16.0944  -22.0627    4.6060 C   0  0  0  0  0  0  0  0  0  0  0  0
   17.9247  -21.0785    4.1800 C   0  0  0  0  0  0  0  0  0  0  0  0
   19.0970  -20.6195    4.9955 C   0  0  0  0  0  0  0  0  0  0  0  0
   16.8981  -20.9500    0.0655 C   0  0  0  0  0  0  0  0  0  0  0  0
   15.5729  -21.5637   -0.2767 C   0  0  0  0  0  0  0  0  0  0  0  0
   15.5585  -21.3423   -1.7603 C   0  0  0  0  0  0  0  0  0  0  0  0
   14.2333  -21.9560   -2.1024 C   0  0  0  0  0  0  0  0  0  0  0  0
   12.8902  -22.6126   -2.2252 C   0  0  0  0  0  0  0  0  0  0  0  0
   11.5592  -23.2973   -2.1259 C   0  0  0  0  0  0  0  0  0  0  0  0
   12.0677  -22.8359   -3.4596 C   0  0  0  0  0  0  0  0  0  0  0  0
   12.3852  -22.4579   -4.8760 C   0  0  0  0  0  0  0  0  0  0  0  0
   13.6037  -21.7631   -5.4079 C   0  0  0  0  0  0  0  0  0  0  0  0
   12.7812  -21.9865   -6.6423 C   0  0  0  0  0  0  0  0  0  0  0  0
   14.4560  -21.1678   -6.4891 C   0  0  0  0  0  0  0  0  0  0  0  0
   15.3083  -20.5724   -7.5704 C   0  0  0  0  0  0  0  0  0  0  0  0
   14.8054  -21.2748   -4.6547 C   0  0  0  0  0  0  0  0  0  0  0  0
   15.0856  -21.3607   -3.1837 C   0  0  0  0  0  0  0  0  0  0  0  0
   13.7426  -22.0172   -3.3064 C   0  0  0  0  0  0  0  0  0  0  0  0
   16.0458  -21.5453    1.1467 N   0  0  0  0  0  0  0  0  0  0  0  0
   15.8267  -21.8784    2.5927 C   0  0  0  0  0  0  0  0  0  0  0  0
   15.6075  -22.2116    4.0388 C   0  0  0  0  0  0  0  0  0  0  0  0
   15.3884  -22.5446    5.4848 C   0  0  0  0  0  0  0  0  0  0  0  0
   16.1131  -21.2640   -9.9027 H   0  0  0  0  0  0  0  0  0  0  0  0
   18.7558  -21.3576   -9.4387 H   0  0  0  0  0  0  0  0  0  0  0  0
   16.2703  -18.3635   -9.1525 H   0  0  0  0  0  0  0  0  0  0  0  0
   18.3904  -18.5962   -7.3066 H   0  0  0  0  0  0  0  0  0  0  0  0
   19.2578  -18.6199  -10.1783 H   0  0  0  0  0  0  0  0  0  0  0  0
   20.2237  -17.6887   -9.8137 H   0  0  0  0  0  0  0  0  0  0  0  0
   19.8948  -18.3980   -6.9232 H   0  0  0  0  0  0  0  0  0  0  0  0
   21.4362  -17.1036   -9.9422 H   0  0  0  0  0  0  0  0  0  0  0  0
   22.5231  -16.4679  -10.5042 H   0  0  0  0  0  0  0  0  0  0  0  0
   23.9183  -15.9100   -9.5660 H   0  0  0  0  0  0  0  0  0  0  0  0
   25.0968  -15.2213  -10.2443 H   0  0  0  0  0  0  0  0  0  0  0  0
   25.5508  -14.4768  -13.4832 H   0  0  0  0  0  0  0  0  0  0  0  0
   23.6798  -15.4547  -13.2755 H   0  0  0  0  0  0  0  0  0  0  0  0
   25.4714  -14.7678  -11.8647 H   0  0  0  0  0  0  0  0  0  0  0  0
   22.3645  -16.3799  -11.5188 H   0  0  0  0  0  0  0  0  0  0  0  0
   23.2732  -15.7077  -12.8656 H   0  0  0  0  0  0  0  0  0  0  0  0
   20.6992  -16.8092  -14.0046 H   0  0  0  0  0  0  0  0  0  0  0  0
   22.5727  -15.8364  -14.2131 H   0  0  0  0  0  0  0  0  0  0  0  0
   21.0245  -16.9881  -11.9159 H   0  0  0  0  0  0  0  0  0  0  0  0
   24.8955  -15.7341   -7.5293 H   0  0  0  0  0  0  0  0  0  0  0  0
   24.0147  -15.9816   -8.7941 H   0  0  0  0  0  0  0  0  0  0  0  0
   24.3731  -16.2981   -5.5986 H   0  0  0  0  0  0  0  0  0  0  0  0
   20.1166  -18.3846   -5.9845 H   0  0  0  0  0  0  0  0  0  0  0  0
   22.6993  -16.0606   -3.8534 H   0  0  0  0  0  0  0  0  0  0  0  0
   23.7673  -18.1797   -4.1837 H   0  0  0  0  0  0  0  0  0  0  0  0
   21.7824  -17.9921   -3.1231 H   0  0  0  0  0  0  0  0  0  0  0  0
   19.5296  -18.8484   -4.9003 H   0  0  0  0  0  0  0  0  0  0  0  0
   18.8726  -19.3755   -3.6591 H   0  0  0  0  0  0  0  0  0  0  0  0
   21.2124  -18.4478   -2.0266 H   0  0  0  0  0  0  0  0  0  0  0  0
   18.2149  -19.9012   -2.4178 H   0  0  0  0  0  0  0  0  0  0  0  0
   20.5540  -18.9724   -0.7851 H   0  0  0  0  0  0  0  0  0  0  0  0
   17.6452  -20.3576   -1.3213 H   0  0  0  0  0  0  0  0  0  0  0  0
   19.8967  -19.4988    0.4563 H   0  0  0  0  0  0  0  0  0  0  0  0
   19.2388  -20.0243    1.6977 H   0  0  0  0  0  0  0  0  0  0  0  0
   18.6524  -20.4891    2.7817 H   0  0  0  0  0  0  0  0  0  0  0  0
   16.1155  -21.5883    1.6316 H   0  0  0  0  0  0  0  0  0  0  0  0
   15.4558  -22.1099    2.8736 H   0  0  0  0  0  0  0  0  0  0  0  0
   15.1725  -22.6840    5.6129 H   0  0  0  0  0  0  0  0  0  0  0  0
   16.9516  -21.8199    5.8127 H   0  0  0  0  0  0  0  0  0  0  0  0
   14.9235  -22.5243    3.7898 H   0  0  0  0  0  0  0  0  0  0  0  0
   17.5697  -21.4765    5.5819 H   0  0  0  0  0  0  0  0  0  0  0  0
   18.7210  -20.5018    3.0471 H   0  0  0  0  0  0  0  0  0  0  0  0
   20.2693  -20.1605    5.8110 H   0  0  0  0  0  0  0  0  0  0  0  0
   18.4390  -21.1446    6.2370 H   0  0  0  0  0  0  0  0  0  0  0  0
   19.7551  -20.0944    3.7540 H   0  0  0  0  0  0  0  0  0  0  0  0
   17.3440  -20.5153   -1.2992 H   0  0  0  0  0  0  0  0  0  0  0  0
   14.2926  -22.2618    0.0750 H   0  0  0  0  0  0  0  0  0  0  0  0
   16.8387  -20.6442   -2.1119 H   0  0  0  0  0  0  0  0  0  0  0  0
   13.9516  -22.3179   -0.6742 H   0  0  0  0  0  0  0  0  0  0  0  0
   11.5066  -23.5515   -0.6486 H   0  0  0  0  0  0  0  0  0  0  0  0
   10.2466  -23.8937   -2.5398 H   0  0  0  0  0  0  0  0  0  0  0  0
   10.7899  -23.3932   -4.0135 H   0  0  0  0  0  0  0  0  0  0  0  0
   11.0422  -23.1144   -4.9989 H   0  0  0  0  0  0  0  0  0  0  0  0
   11.9470  -22.4572   -6.3106 H   0  0  0  0  0  0  0  0  0  0  0  0
   11.9587  -22.2098   -7.8767 H   0  0  0  0  0  0  0  0  0  0  0  0
   13.5397  -21.0533   -7.5387 H   0  0  0  0  0  0  0  0  0  0  0  0
   11.8221  -22.9742   -6.0467 H   0  0  0  0  0  0  0  0  0  0  0  0
   15.5908  -20.7341   -5.6094 H   0  0  0  0  0  0  0  0  0  0  0  0
   13.5289  -21.4563   -7.6325 H   0  0  0  0  0  0  0  0  0  0  0  0
   15.8841  -20.0831   -8.8661 H   0  0  0  0  0  0  0  0  0  0  0  0
   14.2702  -20.9374   -8.5897 H   0  0  0  0  0  0  0  0  0  0  0  0
   16.2348  -20.2827   -6.4268 H   0  0  0  0  0  0  0  0  0  0  0  0
   15.2796  -20.8280   -6.0058 H   0  0  0  0  0  0  0  0  0  0  0  0
   16.1484  -20.6183   -4.5319 H   0  0  0  0  0  0  0  0  0  0  0  0
   14.0601  -21.6392   -4.7229 H   0  0  0  0  0  0  0  0  0  0  0  0
   12.5407  -22.5056   -4.0596 H   0  0  0  0  0  0  0  0  0  0  0  0
   16.3739  -23.2552    2.3585 H   0  0  0  0  0  0  0  0  0  0  0  0
   15.2426  -20.6231    3.1699 H   0  0  0  0  0  0  0  0  0  0  0  0
   15.0144  -20.8520    4.2621 H   0  0  0  0  0  0  0  0  0  0  0  0
   16.2229  -23.5203    3.6409 H   0  0  0  0  0  0  0  0  0  0  0  0
   15.1692  -22.8775    6.9309 H   0  0  0  0  0  0  0  0  0  0  0  0
   15.9069  -23.9459    5.6172 H   0  0  0  0  0  0  0  0  0  0  0  0
   14.7993  -21.1833    5.7089 H   0  0  0  0  0  0  0  0  0  0  0  0
  1  2  2  3
  2  3  1  0
  3  4  1  0
  4  5  1  0
  5  6  1  0
  6  7  1  0
  7  8  1  0
  8  9  1  0
  8 10  1  0
 10 11  1  0
  6 12  1  0
 12 13  1  0
 13 14  1  0
 14 15  1  0
 15 16  1  0
 15 17  1  0
 17 18  1  0
 18 19  1  0
 19 20  1  0
 20 21  1  0
 21 22  1  0
 22 23  1  0
 23 24  1  0
 23 25  1  0
 25 26  1  0
 21 27  1  0
 27 28  1  0
 28 29  1  0
 29 30  1  0
 30 31  1  0
 31 32  1  0
 32 33  1  0
 33 34  1  0
 34 35  1  0
 35 36  1  0
 35 37  1  0
 37 38  1  0
 35 39  1  0
 39 40  1  0
 40 41  1  0
 28 42  1  0
 42 43  1  0
 43 44  1  0
 44 45  1  0
 14  5  1  0
 42 27  1  0
 40 29  1  0
 40 30  1  0
 33 31  1  0
 41 31  1  0
  1 46  1  0
  1 47  1  0
  2 48  1  0
  3 49  1  0
  3 50  1  0
  4 51  1  0
  4 52  1  0
  6 53  1  0
  7 54  1  0
  7 55  1  0
  8 56  1  0
  9 57  1  0
  9 58  1  0
  9 59  1  0
 10 60  1  0
 10 61  1  0
 11 62  1  0
 11 63  1  0
 11 64  1  0
 12 65  1  0
 12 66  1  0
 13 67  1  0
 15 68  1  0
 16 69  1  0
 16 70  1  0
 17 71  1  0
 17 72  1  0
 18 73  1  0
 18 74  1  0
 19 75  1  0
 19 76  1  0
 20 77  1  0
 20 78  1  0
 21 79  1  0
 22 80  1  0
 22 81  1  0
 23 82  1  0
 24 83  1  0
 24 84  1  0
 24 85  1  0
 25 86  1  0
 25 87  1  0
 26 88  1  0
 26 89  1  0
 26 90  1  0
 27 91  1  0
 28 92  1  0
 29 93  1  0
 30 94  1  0
 32 95  1  0
 32 96  1  0
 33 97  1  0
 34 98  1  0
 34 99  1  0
 36100  1  0
 36101  1  0
 36102  1  0
 37103  1  0
 37104  1  0
 38105  1  0
 38106  1  0
 38107  1  0
 39108  1  0
 39109  1  0
 41110  1  0
 41111  1  0
 43112  1  0
 43113  1  0
 44114  1  0
 44115  1  0
 45116  1  0
 45117  1  0
 45118  1  0
M  END
