
     RDKit          2D

 42 46  0  0  0  0  0  0  0  0999 V2000
   16.6040  -23.1639  -14.7702 O   0  0  0  0  0  0  0  0  0  0  0  0
   17.1359  -22.9720  -13.3807 C   0  0  0  0  0  0  0  0  0  0  0  0
   18.4834  -22.6300  -13.9438 O   0  0  0  0  0  0  0  0  0  0  0  0
   17.6676  -22.7801  -11.9914 C   0  0  0  0  0  0  0  0  0  0  0  0
   18.1993  -22.5881  -10.6020 C   0  0  0  0  0  0  0  0  0  0  0  0
   18.7311  -22.3962   -9.2126 C   0  0  0  0  0  0  0  0  0  0  0  0
   19.2629  -22.2043   -7.8233 C   0  0  0  0  0  0  0  0  0  0  0  0
   18.0284  -22.5088   -7.0275 C   0  0  0  0  0  0  0  0  0  0  0  0
   18.7858  -22.2595   -5.7570 C   0  0  0  0  0  0  0  0  0  0  0  0
   17.5513  -22.5640   -4.9612 C   0  0  0  0  0  0  0  0  0  0  0  0
   16.1035  -22.9523   -4.9073 C   0  0  0  0  0  0  0  0  0  0  0  0
   14.7297  -23.3389   -5.3691 C   0  0  0  0  0  0  0  0  0  0  0  0
   13.2819  -23.7272   -5.3151 C   0  0  0  0  0  0  0  0  0  0  0  0
   14.0393  -23.4778   -4.0446 C   0  0  0  0  0  0  0  0  0  0  0  0
   16.7939  -22.8132   -6.2317 C   0  0  0  0  0  0  0  0  0  0  0  0
   20.6821  -21.8332   -8.1365 C   0  0  0  0  0  0  0  0  0  0  0  0
   21.6427  -21.5355   -7.0235 C   0  0  0  0  0  0  0  0  0  0  0  0
   20.2235  -21.9066   -6.7102 C   0  0  0  0  0  0  0  0  0  0  0  0
   17.5048  -22.9628  -15.9526 H   0  0  0  0  0  0  0  0  0  0  0  0
   15.7882  -23.3139  -12.8177 H   0  0  0  0  0  0  0  0  0  0  0  0
   19.6177  -22.2921  -13.0223 H   0  0  0  0  0  0  0  0  0  0  0  0
   18.7833  -21.9376  -12.5348 H   0  0  0  0  0  0  0  0  0  0  0  0
   16.5518  -23.6226  -11.4480 H   0  0  0  0  0  0  0  0  0  0  0  0
   19.5462  -22.2431  -11.1652 H   0  0  0  0  0  0  0  0  0  0  0  0
   16.8526  -22.9331  -10.0388 H   0  0  0  0  0  0  0  0  0  0  0  0
   20.0784  -22.0531   -9.7757 H   0  0  0  0  0  0  0  0  0  0  0  0
   17.5955  -22.6910   -8.8971 H   0  0  0  0  0  0  0  0  0  0  0  0
   17.2975  -22.7392   -7.9703 H   0  0  0  0  0  0  0  0  0  0  0  0
   19.3872  -22.0492   -4.3990 H   0  0  0  0  0  0  0  0  0  0  0  0
   19.5198  -22.0704   -6.0039 H   0  0  0  0  0  0  0  0  0  0  0  0
   17.9635  -22.4020   -3.5281 H   0  0  0  0  0  0  0  0  0  0  0  0
   16.0664  -22.9091   -3.4084 H   0  0  0  0  0  0  0  0  0  0  0  0
   14.9430  -23.3343   -6.8538 H   0  0  0  0  0  0  0  0  0  0  0  0
   12.9923  -23.8574   -6.7811 H   0  0  0  0  0  0  0  0  0  0  0  0
   11.9345  -24.0703   -4.7520 H   0  0  0  0  0  0  0  0  0  0  0  0
   12.9550  -23.7343   -3.0404 H   0  0  0  0  0  0  0  0  0  0  0  0
   15.0549  -23.1664   -2.9857 H   0  0  0  0  0  0  0  0  0  0  0  0
   15.7427  -23.1328   -7.2529 H   0  0  0  0  0  0  0  0  0  0  0  0
   21.1408  -21.7597   -9.5628 H   0  0  0  0  0  0  0  0  0  0  0  0
   22.8771  -21.2310   -7.8193 H   0  0  0  0  0  0  0  0  0  0  0  0
   22.1744  -21.3436   -5.6342 H   0  0  0  0  0  0  0  0  0  0  0  0
   19.9903  -21.9275   -5.5180 H   0  0  0  0  0  0  0  0  0  0  0  0
  1  2  1  0
  2  3  1  0
  2  4  1  0
  4  5  1  0
  5  6  1  0
  6  7  1  0
  7  8  1  0
  8  9  1  0
  9 10  1  0
 10 11  1  0
 11 12  1  0
 12 13  1  0
 13 14  1  0
 11 15  1  0
  7 16  1  0
 16 17  1  0
 17 18  1  0
 18  7  1  0
 15  8  1  0
 18 16  1  0
 15 10  1  0
 14 12  1  0
  1 19  1  0
  2 20  1  0
  3 21  1  0
  4 22  1  0
  4 23  1  0
  5 24  1  0
  5 25  1  0
  6 26  1  0
  6 27  1  0
  8 28  1  0
  9 29  1  0
  9 30  1  0
 10 31  1  0
 11 32  1  0
 12 33  1  0
 13 34  1  0
 13 35  1  0
 14 36  1  0
 14 37  1  0
 15 38  1  0
 16 39  1  0
 17 40  1  0
 17 41  1  0
 18 42  1  0
M  END
