
     RDKit          2D

117121  0  0  0  0  0  0  0  0999 V2000
   21.6845   23.6979    9.7207 C   0  0  0  0  0  0  0  0  0  0  0  0
   20.2908   23.8980   10.2381 C   0  0  0  0  0  0  0  0  0  0  0  0
   18.8972   24.0981   10.7554 C   0  0  0  0  0  0  0  0  0  0  0  0
   17.5035   24.2982   11.2728 C   0  0  0  0  0  0  0  0  0  0  0  0
   16.1098   24.4983   11.7901 C   0  0  0  0  0  0  0  0  0  0  0  0
   14.7162   24.6983   12.3075 C   0  0  0  0  0  0  0  0  0  0  0  0
   13.3225   24.8984   12.8249 C   0  0  0  0  0  0  0  0  0  0  0  0
   11.9289   25.0985   13.3423 O   0  0  0  0  0  0  0  0  0  0  0  0
   11.0145   26.0817   12.6735 C   0  0  0  0  0  0  0  0  0  0  0  0
   10.1002   27.0650   12.0048 C   0  0  0  0  0  0  0  0  0  0  0  0
    9.1859   28.0483   11.3360 C   0  0  0  0  0  0  0  0  0  0  0  0
    8.2717   29.0316   10.6672 C   0  0  0  0  0  0  0  0  0  0  0  0
    7.3574   30.0150    9.9985 C   0  0  0  0  0  0  0  0  0  0  0  0
    6.4433   30.9984    9.3297 C   0  0  0  0  0  0  0  0  0  0  0  0
    5.5291   31.9818    8.6610 C   0  0  0  0  0  0  0  0  0  0  0  0
    4.6149   32.9652    7.9922 C   0  0  0  0  0  0  0  0  0  0  0  0
    3.7007   33.9485    7.3235 C   0  0  0  0  0  0  0  0  0  0  0  0
    5.7045   33.9958    8.0184 C   0  0  0  0  0  0  0  0  0  0  0  0
    6.7940   35.0264    8.0445 C   0  0  0  0  0  0  0  0  0  0  0  0
    7.7425   34.0095    8.6066 O   0  0  0  0  0  0  0  0  0  0  0  0
    7.8835   36.0571    8.0705 C   0  0  0  0  0  0  0  0  0  0  0  0
    7.6366   37.4239    7.5044 O   0  0  0  0  0  0  0  0  0  0  0  0
    9.2200   35.7208    8.6628 C   0  0  0  0  0  0  0  0  0  0  0  0
   10.5564   35.3845    9.2551 N   0  0  0  0  0  0  0  0  0  0  0  0
   10.8034   34.0176    9.8213 C   0  0  0  0  0  0  0  0  0  0  0  0
   11.0502   32.6507   10.3875 C   0  0  0  0  0  0  0  0  0  0  0  0
   11.6459   36.4151    9.2812 C   0  0  0  0  0  0  0  0  0  0  0  0
   12.5606   35.4313    9.9487 C   0  0  0  0  0  0  0  0  0  0  0  0
   13.6502   36.4619    9.9748 C   0  0  0  0  0  0  0  0  0  0  0  0
   14.7398   37.4926   10.0009 C   0  0  0  0  0  0  0  0  0  0  0  0
   12.7355   37.4457    9.3074 C   0  0  0  0  0  0  0  0  0  0  0  0
    5.3569   29.9647    9.2948 N   0  0  0  0  0  0  0  0  0  0  0  0
    4.0214   30.3000    8.6999 C   0  0  0  0  0  0  0  0  0  0  0  0
    2.6858   30.6354    8.1050 C   0  0  0  0  0  0  0  0  0  0  0  0
    2.5646   29.2087    8.5517 C   0  0  0  0  0  0  0  0  0  0  0  0
    1.4783   28.1749    8.5168 C   0  0  0  0  0  0  0  0  0  0  0  0
    0.0631   28.1399    8.0206 C   0  0  0  0  0  0  0  0  0  0  0  0
   -0.8518   29.1239    7.3539 C   0  0  0  0  0  0  0  0  0  0  0  0
   -0.7306   30.5506    6.9071 C   0  0  0  0  0  0  0  0  0  0  0  0
   -1.6454   31.5348    6.2404 C   0  0  0  0  0  0  0  0  0  0  0  0
   -0.5591   32.5685    6.2753 C   0  0  0  0  0  0  0  0  0  0  0  0
    0.3558   31.5844    6.9421 C   0  0  0  0  0  0  0  0  0  0  0  0
    1.1684   32.8375    6.8033 C   0  0  0  0  0  0  0  0  0  0  0  0
    0.6883   30.7717    7.3407 C   0  0  0  0  0  0  0  0  0  0  0  0
    1.7709   31.6195    7.4383 C   0  0  0  0  0  0  0  0  0  0  0  0
   23.0781   23.4979    9.2033 H   0  0  0  0  0  0  0  0  0  0  0  0
   21.9087   22.6215   10.7411 H   0  0  0  0  0  0  0  0  0  0  0  0
   21.4603   24.7744    8.7004 H   0  0  0  0  0  0  0  0  0  0  0  0
   20.5484   22.8924   11.3208 H   0  0  0  0  0  0  0  0  0  0  0  0
   20.0333   24.9036    9.1553 H   0  0  0  0  0  0  0  0  0  0  0  0
   18.8991   25.4989   10.2191 H   0  0  0  0  0  0  0  0  0  0  0  0
   18.8951   22.6973   11.2918 H   0  0  0  0  0  0  0  0  0  0  0  0
   17.7321   23.2305   12.3013 H   0  0  0  0  0  0  0  0  0  0  0  0
   17.2750   25.3659   10.2443 H   0  0  0  0  0  0  0  0  0  0  0  0
   15.8829   25.5692   10.7647 H   0  0  0  0  0  0  0  0  0  0  0  0
   16.3368   23.4274   12.8157 H   0  0  0  0  0  0  0  0  0  0  0  0
   14.4910   25.7729   11.2854 H   0  0  0  0  0  0  0  0  0  0  0  0
   14.9413   23.6239   13.3297 H   0  0  0  0  0  0  0  0  0  0  0  0
   13.0774   25.9312   11.7650 H   0  0  0  0  0  0  0  0  0  0  0  0
   13.5677   23.8657   13.8848 H   0  0  0  0  0  0  0  0  0  0  0  0
    9.8261   25.2964   13.1436 H   0  0  0  0  0  0  0  0  0  0  0  0
   12.2029   26.8671   12.2034 H   0  0  0  0  0  0  0  0  0  0  0  0
   11.1881   28.0972   12.0349 H   0  0  0  0  0  0  0  0  0  0  0  0
    9.0122   26.0328   11.9745 H   0  0  0  0  0  0  0  0  0  0  0  0
    8.1006   27.0135   11.2980 H   0  0  0  0  0  0  0  0  0  0  0  0
   10.2711   29.0831   11.3740 H   0  0  0  0  0  0  0  0  0  0  0  0
    9.2544   30.1313   10.9408 H   0  0  0  0  0  0  0  0  0  0  0  0
    7.2889   27.9319   10.3936 H   0  0  0  0  0  0  0  0  0  0  0  0
    8.4430   31.0495   10.0356 H   0  0  0  0  0  0  0  0  0  0  0  0
    6.3914   28.8684   10.0431 H   0  0  0  0  0  0  0  0  0  0  0  0
    7.5296   32.0321    9.3647 H   0  0  0  0  0  0  0  0  0  0  0  0
    6.2573   32.4859    8.6492 H   0  0  0  0  0  0  0  0  0  0  0  0
    4.1464   31.4184    8.5168 H   0  0  0  0  0  0  0  0  0  0  0  0
    3.3365   32.2031    7.8051 H   0  0  0  0  0  0  0  0  0  0  0  0
    2.7866   34.9319    6.6548 H   0  0  0  0  0  0  0  0  0  0  0  0
    2.7336   32.8028    7.3708 H   0  0  0  0  0  0  0  0  0  0  0  0
    4.2718   34.6251    7.2955 H   0  0  0  0  0  0  0  0  0  0  0  0
    5.2471   34.6463    7.6282 H   0  0  0  0  0  0  0  0  0  0  0  0
    6.3186   33.4936    8.4122 H   0  0  0  0  0  0  0  0  0  0  0  0
    5.8454   36.0434    7.4823 H   0  0  0  0  0  0  0  0  0  0  0  0
    8.5896   34.1376    8.8316 H   0  0  0  0  0  0  0  0  0  0  0  0
    9.6894   37.1207    8.3984 H   0  0  0  0  0  0  0  0  0  0  0  0
    9.0410   34.8762    8.8604 H   0  0  0  0  0  0  0  0  0  0  0  0
    9.4025   33.6168    9.4648 H   0  0  0  0  0  0  0  0  0  0  0  0
   12.2238   34.2487   10.2442 H   0  0  0  0  0  0  0  0  0  0  0  0
   11.2972   31.2838   10.9537 H   0  0  0  0  0  0  0  0  0  0  0  0
   12.4505   33.0520   10.7458 H   0  0  0  0  0  0  0  0  0  0  0  0
    9.6501   32.2494   10.0293 H   0  0  0  0  0  0  0  0  0  0  0  0
   10.7313   37.3990    8.6138 H   0  0  0  0  0  0  0  0  0  0  0  0
   13.4753   34.4475   10.6161 H   0  0  0  0  0  0  0  0  0  0  0  0
   11.8713   34.1165   10.1635 H   0  0  0  0  0  0  0  0  0  0  0  0
   14.5648   35.4781   10.6422 H   0  0  0  0  0  0  0  0  0  0  0  0
   15.8293   38.5232   10.0270 H   0  0  0  0  0  0  0  0  0  0  0  0
   15.7707   36.4030    9.9860 H   0  0  0  0  0  0  0  0  0  0  0  0
   13.8493   38.6995   10.0188 H   0  0  0  0  0  0  0  0  0  0  0  0
   11.8209   38.4296    8.6399 H   0  0  0  0  0  0  0  0  0  0  0  0
   13.7055   38.5886    9.2519 H   0  0  0  0  0  0  0  0  0  0  0  0
    5.4338   28.5566    9.8062 H   0  0  0  0  0  0  0  0  0  0  0  0
    4.3381   31.7181    8.3272 H   0  0  0  0  0  0  0  0  0  0  0  0
    3.7046   28.8821    9.0726 H   0  0  0  0  0  0  0  0  0  0  0  0
    3.3504   31.9625    7.8876 H   0  0  0  0  0  0  0  0  0  0  0  0
    3.3195   28.0903    9.2071 H   0  0  0  0  0  0  0  0  0  0  0  0
    3.9593   29.0943    9.0919 H   0  0  0  0  0  0  0  0  0  0  0  0
    1.1612   26.7571    8.8901 H   0  0  0  0  0  0  0  0  0  0  0  0
    2.5354   27.3442    9.1819 H   0  0  0  0  0  0  0  0  0  0  0  0
   -1.1400   27.2531    7.8932 H   0  0  0  0  0  0  0  0  0  0  0  0
    0.1399   26.7318    8.5320 H   0  0  0  0  0  0  0  0  0  0  0  0
   -2.1873   29.4593    6.7590 H   0  0  0  0  0  0  0  0  0  0  0  0
   -1.8003   27.9633    7.4120 H   0  0  0  0  0  0  0  0  0  0  0  0
   -2.5604   32.5188    5.5737 H   0  0  0  0  0  0  0  0  0  0  0  0
   -2.7319   30.5011    6.2054 H   0  0  0  0  0  0  0  0  0  0  0  0
    0.5273   33.6022    6.3103 H   0  0  0  0  0  0  0  0  0  0  0  0
   -1.4740   33.5526    5.6086 H   0  0  0  0  0  0  0  0  0  0  0  0
    1.2896   34.2644    6.3566 H   0  0  0  0  0  0  0  0  0  0  0  0
    0.7528   29.3618    7.8484 H   0  0  0  0  0  0  0  0  0  0  0  0
    1.9712   30.3048    7.9620 H   0  0  0  0  0  0  0  0  0  0  0  0
    2.9674   32.5160    7.5599 H   0  0  0  0  0  0  0  0  0  0  0  0
  1  2  1  0
  2  3  1  0
  3  4  1  0
  4  5  1  0
  5  6  1  0
  6  7  1  0
  7  8  1  0
  8  9  1  0
  9 10  1  0
 10 11  1  0
 11 12  1  0
 12 13  1  0
 13 14  1  0
 14 15  1  0
 15 16  1  0
 16 17  1  0
 16 18  1  0
 18 19  1  0
 19 20  1  0
 19 21  1  0
 21 22  2  0
 21 23  1  0
 23 24  1  0
 24 25  1  0
 25 26  1  0
 24 27  1  0
 27 28  1  0
 28 29  1  0
 29 30  1  0
 29 31  1  0
 14 32  1  0
 32 33  1  0
 33 34  1  0
 34 35  1  0
 35 36  1  0
 36 37  1  0
 37 38  1  0
 38 39  1  0
 39 40  1  0
 40 41  1  0
 41 42  1  0
 42 43  1  0
 43 44  1  0
 43 45  1  0
 31 27  1  0
 45 34  1  0
 42 39  1  0
 44 39  1  0
 45 42  1  0
  1 46  1  0
  1 47  1  0
  1 48  1  0
  2 49  1  0
  2 50  1  0
  3 51  1  0
  3 52  1  0
  4 53  1  0
  4 54  1  0
  5 55  1  0
  5 56  1  0
  6 57  1  0
  6 58  1  0
  7 59  1  0
  7 60  1  0
  9 61  1  0
  9 62  1  0
 10 63  1  0
 10 64  1  0
 11 65  1  0
 11 66  1  0
 12 67  1  0
 12 68  1  0
 13 69  1  0
 13 70  1  0
 14 71  1  0
 15 72  1  0
 15 73  1  0
 16 74  1  0
 17 75  1  0
 17 76  1  0
 17 77  1  0
 18 78  1  0
 18 79  1  0
 19 80  1  0
 20 81  1  0
 23 82  1  0
 23 83  1  0
 25 84  1  0
 25 85  1  0
 26 86  1  0
 26 87  1  0
 26 88  1  0
 27 89  1  0
 28 90  1  0
 28 91  1  0
 29 92  1  0
 30 93  1  0
 30 94  1  0
 30 95  1  0
 31 96  1  0
 31 97  1  0
 32 98  1  0
 33 99  1  0
 33100  1  0
 34101  1  0
 35102  1  0
 35103  1  0
 36104  1  0
 36105  1  0
 37106  1  0
 37107  1  0
 38108  1  0
 38109  1  0
 40110  1  0
 40111  1  0
 41112  1  0
 41113  1  0
 43114  1  0
 44115  1  0
 44116  1  0
 45117  1  0
M  END
