
     RDKit          2D

 60 63  0  0  0  0  0  0  0  0999 V2000
   19.5546  -23.7974   -8.6210 C   0  0  0  0  0  0  0  0  0  0  0  0
   18.7973  -23.4218   -7.3819 C   0  0  0  0  0  0  0  0  0  0  0  0
   18.0399  -23.0462   -6.1428 C   0  0  0  0  0  0  0  0  0  0  0  0
   17.2824  -22.6706   -4.9037 C   0  0  0  0  0  0  0  0  0  0  0  0
   16.5250  -22.2950   -3.6646 C   0  0  0  0  0  0  0  0  0  0  0  0
   15.7677  -21.9194   -2.4255 C   0  0  0  0  0  0  0  0  0  0  0  0
   15.0103  -21.5438   -1.1865 C   0  0  0  0  0  0  0  0  0  0  0  0
   13.9069  -21.0282   -0.3109 C   0  0  0  0  0  0  0  0  0  0  0  0
   13.7512  -21.0102   -1.8027 C   0  0  0  0  0  0  0  0  0  0  0  0
   12.3807  -20.4106   -1.9142 N   0  0  0  0  0  0  0  0  0  0  0  0
   16.8944  -22.5714   -6.9868 C   0  0  0  0  0  0  0  0  0  0  0  0
   15.7489  -22.0966   -7.8309 C   0  0  0  0  0  0  0  0  0  0  0  0
   14.9315  -21.7790   -9.0479 C   0  0  0  0  0  0  0  0  0  0  0  0
   16.2958  -22.3842   -9.1978 C   0  0  0  0  0  0  0  0  0  0  0  0
   16.3789  -22.4722  -10.6929 C   0  0  0  0  0  0  0  0  0  0  0  0
   16.4620  -22.5603  -12.1880 C   0  0  0  0  0  0  0  0  0  0  0  0
   17.8317  -23.1616  -12.0765 N   0  0  0  0  0  0  0  0  0  0  0  0
   18.5885  -23.5385  -13.3155 C   0  0  0  0  0  0  0  0  0  0  0  0
   19.6912  -24.0557  -14.1911 C   0  0  0  0  0  0  0  0  0  0  0  0
   19.8471  -24.0734  -12.6993 C   0  0  0  0  0  0  0  0  0  0  0  0
   16.5452  -22.6483  -13.6831 C   0  0  0  0  0  0  0  0  0  0  0  0
   16.1545  -22.5262  -15.1262 O   0  0  0  0  0  0  0  0  0  0  0  0
   15.2098  -22.0736  -14.0524 C   0  0  0  0  0  0  0  0  0  0  0  0
   14.0643  -21.5988  -14.8965 O   0  0  0  0  0  0  0  0  0  0  0  0
   20.3120  -24.1730   -9.8600 H   0  0  0  0  0  0  0  0  0  0  0  0
   20.6995  -24.2733   -7.7768 H   0  0  0  0  0  0  0  0  0  0  0  0
   18.5241  -23.3691   -9.3807 H   0  0  0  0  0  0  0  0  0  0  0  0
   19.9419  -23.8984   -6.5377 H   0  0  0  0  0  0  0  0  0  0  0  0
   18.1887  -23.1781   -8.1160 H   0  0  0  0  0  0  0  0  0  0  0  0
   19.1853  -23.5210   -5.2987 H   0  0  0  0  0  0  0  0  0  0  0  0
   18.4264  -23.1488   -4.0596 H   0  0  0  0  0  0  0  0  0  0  0  0
   16.5575  -22.3633   -5.3093 H   0  0  0  0  0  0  0  0  0  0  0  0
   15.3801  -21.8190   -4.5088 H   0  0  0  0  0  0  0  0  0  0  0  0
   17.6701  -22.7710   -2.8205 H   0  0  0  0  0  0  0  0  0  0  0  0
   14.6225  -21.4442   -3.2697 H   0  0  0  0  0  0  0  0  0  0  0  0
   16.8738  -22.3851   -1.8075 H   0  0  0  0  0  0  0  0  0  0  0  0
   16.0065  -21.9469   -0.1400 H   0  0  0  0  0  0  0  0  0  0  0  0
   14.5200  -21.2522    1.0397 H   0  0  0  0  0  0  0  0  0  0  0  0
   12.5907  -20.4347    0.0956 H   0  0  0  0  0  0  0  0  0  0  0  0
   13.8906  -21.1171   -3.1412 H   0  0  0  0  0  0  0  0  0  0  0  0
   11.1723  -21.2990   -1.9297 H   0  0  0  0  0  0  0  0  0  0  0  0
   12.2188  -18.9224   -2.0103 H   0  0  0  0  0  0  0  0  0  0  0  0
   17.3913  -22.8178   -7.7998 H   0  0  0  0  0  0  0  0  0  0  0  0
   16.3680  -22.3171   -6.3214 H   0  0  0  0  0  0  0  0  0  0  0  0
   14.8042  -21.6441   -6.7573 H   0  0  0  0  0  0  0  0  0  0  0  0
   13.7029  -21.2161   -8.3969 H   0  0  0  0  0  0  0  0  0  0  0  0
   14.4382  -21.6048  -10.2924 H   0  0  0  0  0  0  0  0  0  0  0  0
   17.5316  -22.9276   -9.1917 H   0  0  0  0  0  0  0  0  0  0  0  0
   15.1637  -21.9467  -10.9565 H   0  0  0  0  0  0  0  0  0  0  0  0
   17.7292  -23.0562  -10.4000 H   0  0  0  0  0  0  0  0  0  0  0  0
   15.0924  -21.9528  -12.1165 H   0  0  0  0  0  0  0  0  0  0  0  0
   18.5897  -23.4532  -10.8153 H   0  0  0  0  0  0  0  0  0  0  0  0
   17.9519  -23.2864  -14.1681 H   0  0  0  0  0  0  0  0  0  0  0  0
   19.0783  -23.8312  -15.5416 H   0  0  0  0  0  0  0  0  0  0  0  0
   21.0066  -24.6509  -14.5976 H   0  0  0  0  0  0  0  0  0  0  0  0
   21.2168  -24.6748  -12.5878 H   0  0  0  0  0  0  0  0  0  0  0  0
   19.5274  -23.8824  -11.2463 H   0  0  0  0  0  0  0  0  0  0  0  0
   17.5184  -23.0848  -13.9240 H   0  0  0  0  0  0  0  0  0  0  0  0
   14.5134  -21.7232  -12.7710 H   0  0  0  0  0  0  0  0  0  0  0  0
   14.1474  -21.6868  -16.3917 H   0  0  0  0  0  0  0  0  0  0  0  0
  1  2  1  0
  2  3  1  0
  3  4  1  0
  4  5  1  0
  5  6  1  0
  6  7  1  0
  7  8  1  0
  8  9  1  0
  9 10  1  0
  3 11  1  0
 11 12  1  0
 12 13  1  0
 13 14  1  0
 14 15  1  0
 15 16  1  0
 16 17  1  0
 17 18  1  0
 18 19  1  0
 19 20  1  0
 16 21  1  0
 21 22  1  0
 22 23  1  0
 23 24  1  0
  9  7  1  0
 14 12  1  0
 20 18  1  0
 23 21  1  0
  1 25  1  0
  1 26  1  0
  1 27  1  0
  2 28  1  0
  2 29  1  0
  3 30  1  0
  4 31  1  0
  4 32  1  0
  5 33  1  0
  5 34  1  0
  6 35  1  0
  6 36  1  0
  7 37  1  0
  8 38  1  0
  8 39  1  0
  9 40  1  0
 10 41  1  0
 10 42  1  0
 11 43  1  0
 11 44  1  0
 12 45  1  0
 13 46  1  0
 13 47  1  0
 14 48  1  0
 15 49  1  0
 15 50  1  0
 16 51  1  0
 17 52  1  0
 18 53  1  0
 19 54  1  0
 19 55  1  0
 20 56  1  0
 20 57  1  0
 21 58  1  0
 23 59  1  0
 24 60  1  0
M  END
