
     RDKit          2D

 27 28  0  0  0  0  0  0  0  0999 V2000
   -2.5684   24.5879   -0.2235 O   0  0  0  0  0  0  0  0  0  0  0  0
   -2.9735   24.2343    1.1768 C   0  0  0  0  0  0  0  0  0  0  0  0
   -2.6443   23.6363    2.5124 C   0  0  0  0  0  0  0  0  0  0  0  0
   -2.8070   23.1867    3.9342 C   0  0  0  0  0  0  0  0  0  0  0  0
   -2.9697   22.7371    5.3559 C   0  0  0  0  0  0  0  0  0  0  0  0
   -1.8305   22.0676    6.0659 C   0  0  0  0  0  0  0  0  0  0  0  0
   -1.9932   21.6181    7.4877 C   0  0  0  0  0  0  0  0  0  0  0  0
   -1.6641   21.0200    8.8233 C   0  0  0  0  0  0  0  0  0  0  0  0
   -0.6335   21.0343    7.7335 C   0  0  0  0  0  0  0  0  0  0  0  0
   -4.0040   24.2200    2.2666 N   0  0  0  0  0  0  0  0  0  0  0  0
   -5.3841   24.5488    2.7540 C   0  0  0  0  0  0  0  0  0  0  0  0
   -6.7641   24.8775    3.2412 N   0  0  0  0  0  0  0  0  0  0  0  0
   -7.0323   26.1986    3.8988 O   0  0  0  0  0  0  0  0  0  0  0  0
   -1.2281   23.2086    2.2645 H   0  0  0  0  0  0  0  0  0  0  0  0
   -1.3975   22.6737    3.9333 H   0  0  0  0  0  0  0  0  0  0  0  0
   -4.2258   23.6410    4.1084 H   0  0  0  0  0  0  0  0  0  0  0  0
   -4.2716   22.9570    6.0678 H   0  0  0  0  0  0  0  0  0  0  0  0
   -0.5285   21.8477    5.3541 H   0  0  0  0  0  0  0  0  0  0  0  0
   -3.4095   22.0457    7.7356 H   0  0  0  0  0  0  0  0  0  0  0  0
   -2.9659   21.2399    9.5352 H   0  0  0  0  0  0  0  0  0  0  0  0
   -0.8828   20.3455    9.9118 H   0  0  0  0  0  0  0  0  0  0  0  0
    0.5058   20.3648    8.4434 H   0  0  0  0  0  0  0  0  0  0  0  0
    0.0014   21.2811    6.3971 H   0  0  0  0  0  0  0  0  0  0  0  0
   -5.2251   23.9964    4.1394 H   0  0  0  0  0  0  0  0  0  0  0  0
   -5.7136   25.1457    1.4178 H   0  0  0  0  0  0  0  0  0  0  0  0
   -7.8758   23.8850    3.0707 H   0  0  0  0  0  0  0  0  0  0  0  0
   -6.8815   26.3413    5.3844 H   0  0  0  0  0  0  0  0  0  0  0  0
  1  2  2  0
  2  3  1  0
  3  4  1  0
  4  5  1  0
  5  6  2  3
  6  7  1  0
  7  8  1  0
  8  9  1  0
  3 10  1  0
 10 11  1  0
 11 12  1  0
 12 13  1  0
 10  2  1  0
  9  7  1  0
  3 14  1  6
  4 15  1  0
  4 16  1  0
  5 17  1  0
  6 18  1  0
  7 19  1  0
  8 20  1  0
  8 21  1  0
  9 22  1  0
  9 23  1  0
 11 24  1  0
 11 25  1  0
 12 26  1  0
 13 27  1  0
M  END
