
     RDKit          2D

 65 73  0  0  0  0  0  0  0  0999 V2000
    1.2437   26.9212    5.1324 N   0  0  0  0  0  0  0  0  0  0  0  0
    1.5603   26.5171    3.7229 C   0  0  0  0  0  0  0  0  0  0  0  0
    0.4502   26.1799    2.7722 C   0  0  0  0  0  0  0  0  0  0  0  0
   -0.7337   26.3890    3.6693 C   0  0  0  0  0  0  0  0  0  0  0  0
   -1.9176   26.5981    4.5663 C   0  0  0  0  0  0  0  0  0  0  0  0
   -2.4019   26.9813    5.9333 C   0  0  0  0  0  0  0  0  0  0  0  0
   -3.6844   27.1449    6.6939 P   0  0  0  0  0  0  0  0  0  0  0  0
   -3.3950   27.5778    8.1006 Br  0  0  0  0  0  0  0  0  0  0  0  0
   -5.1648   27.0125    6.4921 C   0  0  0  0  0  0  0  0  0  0  0  0
   -6.1506   26.6460    5.4225 C   0  0  0  0  0  0  0  0  0  0  0  0
   -6.1803   26.2168    3.9855 C   0  0  0  0  0  0  0  0  0  0  0  0
   -5.2402   25.9259    2.8536 C   0  0  0  0  0  0  0  0  0  0  0  0
   -3.7700   25.9093    2.5562 C   0  0  0  0  0  0  0  0  0  0  0  0
   -2.4876   25.7456    1.7956 C   0  0  0  0  0  0  0  0  0  0  0  0
   -1.0175   25.7290    1.4982 C   0  0  0  0  0  0  0  0  0  0  0  0
    0.4526   25.7124    1.2009 C   0  0  0  0  0  0  0  0  0  0  0  0
    0.4229   25.2832   -0.2361 C   0  0  0  0  0  0  0  0  0  0  0  0
    1.7054   25.1196   -0.9966 C   0  0  0  0  0  0  0  0  0  0  0  0
    1.7352   25.5487    0.4404 C   0  0  0  0  0  0  0  0  0  0  0  0
    3.0474   25.8142    1.1168 N   0  0  0  0  0  0  0  0  0  0  0  0
    3.7643   24.7032    1.8253 C   0  0  0  0  0  0  0  0  0  0  0  0
    4.4811   23.5923    2.5338 C   0  0  0  0  0  0  0  0  0  0  0  0
    3.8934   23.7366    3.9062 C   0  0  0  0  0  0  0  0  0  0  0  0
    4.3197   22.8098    5.0059 C   0  0  0  0  0  0  0  0  0  0  0  0
    4.9074   22.6655    3.6335 C   0  0  0  0  0  0  0  0  0  0  0  0
   -2.4579   26.1747    3.2326 C   0  0  0  0  0  0  0  0  0  0  0  0
    1.8768   26.1131    2.3136 C   0  0  0  0  0  0  0  0  0  0  0  0
    3.3034   26.0464    1.8549 C   0  0  0  0  0  0  0  0  0  0  0  0
    3.3894   25.8241    1.0941 I   0  0  0  0  0  0  0  0  0  0  0  0
    2.9869   26.4504    3.2643 C   0  0  0  0  0  0  0  0  0  0  0  0
    2.3538   27.2582    6.0833 H   0  0  0  0  0  0  0  0  0  0  0  0
    0.0762   27.1371    6.0490 H   0  0  0  0  0  0  0  0  0  0  0  0
    0.4555   25.7522    1.3345 H   0  0  0  0  0  0  0  0  0  0  0  0
   -1.4284   25.5428    2.6439 H   0  0  0  0  0  0  0  0  0  0  0  0
   -0.0389   27.2352    4.6946 H   0  0  0  0  0  0  0  0  0  0  0  0
   -0.6981   26.9015    5.3855 H   0  0  0  0  0  0  0  0  0  0  0  0
   -0.9630   27.1653    6.3151 H   0  0  0  0  0  0  0  0  0  0  0  0
   -2.0275   27.4124    7.3203 H   0  0  0  0  0  0  0  0  0  0  0  0
   -4.9614   27.4456    7.9138 H   0  0  0  0  0  0  0  0  0  0  0  0
   -6.4428   27.1785    7.2598 H   0  0  0  0  0  0  0  0  0  0  0  0
   -7.0975   26.9351    6.5494 H   0  0  0  0  0  0  0  0  0  0  0  0
   -7.6324   26.5160    5.2292 H   0  0  0  0  0  0  0  0  0  0  0  0
   -7.6521   26.2310    4.2747 H   0  0  0  0  0  0  0  0  0  0  0  0
   -7.1727   25.8517    2.9216 H   0  0  0  0  0  0  0  0  0  0  0  0
   -6.5482   25.6584    2.1697 H   0  0  0  0  0  0  0  0  0  0  0  0
   -5.2787   25.4964    1.4169 H   0  0  0  0  0  0  0  0  0  0  0  0
   -4.1360   25.4779    1.1669 H   0  0  0  0  0  0  0  0  0  0  0  0
   -3.0279   25.3222    0.4619 H   0  0  0  0  0  0  0  0  0  0  0  0
   -1.3069   25.2964    0.0914 H   0  0  0  0  0  0  0  0  0  0  0  0
   -0.2203   26.1269    2.7050 H   0  0  0  0  0  0  0  0  0  0  0  0
    1.3151   26.1010    2.3650 H   0  0  0  0  0  0  0  0  0  0  0  0
   -0.8893   25.0178   -0.9125 H   0  0  0  0  0  0  0  0  0  0  0  0
    1.1650   24.6962   -2.3304 H   0  0  0  0  0  0  0  0  0  0  0  0
    3.1293   25.0503   -1.4633 H   0  0  0  0  0  0  0  0  0  0  0  0
    4.1232   26.8001    1.4640 H   0  0  0  0  0  0  0  0  0  0  0  0
    3.1359   24.9095    3.1717 H   0  0  0  0  0  0  0  0  0  0  0  0
    4.5673   24.2261    0.6517 H   0  0  0  0  0  0  0  0  0  0  0  0
    5.3179   23.0621    1.4074 H   0  0  0  0  0  0  0  0  0  0  0  0
    2.8793   24.8079    4.1790 H   0  0  0  0  0  0  0  0  0  0  0  0
    3.4829   23.3401    6.1323 H   0  0  0  0  0  0  0  0  0  0  0  0
    5.0365   21.6989    5.7144 H   0  0  0  0  0  0  0  0  0  0  0  0
    5.9214   21.5943    3.3607 H   0  0  0  0  0  0  0  0  0  0  0  0
   -0.9877   26.1581    2.9352 H   0  0  0  0  0  0  0  0  0  0  0  0
    4.7824   26.1812    2.0649 H   0  0  0  0  0  0  0  0  0  0  0  0
    4.0969   26.7876    4.2151 H   0  0  0  0  0  0  0  0  0  0  0  0
  1  2  1  0
  2  3  1  0
  3  4  1  0
  4  5  1  0
  5  6  1  0
  6  7  1  0
  7  8  1  0
  7  9  1  0
  9 10  1  0
 10 11  1  0
 11 12  1  0
 12 13  1  0
 13 14  1  0
 14 15  1  0
 15 16  1  0
 16 17  1  0
 17 18  1  0
 18 19  1  0
 19 20  1  0
 20 21  1  0
 21 22  1  0
 22 23  1  0
 23 24  1  0
 24 25  1  0
 14 26  1  0
  3 27  1  0
 27 28  1  0
 28 29  1  0
 28 30  1  0
 27  2  1  0
 30  2  1  0
 26  5  1  0
 30 27  1  0
 26 13  1  0
 19 16  1  0
 25 22  1  0
 19 17  1  0
 25 23  1  0
  1 31  1  0
  1 32  1  0
  3 33  1  0
  4 34  1  0
  4 35  1  0
  5 36  1  0
  6 37  1  0
  6 38  1  0
  9 39  1  0
  9 40  1  0
 10 41  1  0
 10 42  1  0
 11 43  1  0
 11 44  1  0
 12 45  1  0
 12 46  1  0
 13 47  1  0
 14 48  1  0
 15 49  1  0
 15 50  1  0
 16 51  1  0
 17 52  1  0
 18 53  1  0
 18 54  1  0
 20 55  1  0
 21 56  1  0
 21 57  1  0
 22 58  1  0
 23 59  1  0
 24 60  1  0
 24 61  1  0
 25 62  1  0
 26 63  1  0
 28 64  1  0
 30 65  1  0
M  END
