
     RDKit          2D

 31 34  0  0  0  0  0  0  0  0999 V2000
   -2.3478   24.6910    3.3684 C   0  0  0  0  0  0  0  0  0  0  0  0
   -1.7347   23.3431    3.1293 C   0  0  0  0  0  0  0  0  0  0  0  0
   -1.1215   21.9951    2.8902 C   0  0  0  0  0  0  0  0  0  0  0  0
   -0.9695   20.5795    2.4183 N   0  0  0  0  0  0  0  0  0  0  0  0
   -2.2361   21.3319    2.1368 C   0  0  0  0  0  0  0  0  0  0  0  0
   -3.6110   21.3834    1.5392 O   0  0  0  0  0  0  0  0  0  0  0  0
   -0.4948   23.7788    3.8524 C   0  0  0  0  0  0  0  0  0  0  0  0
    0.4605   24.6492    4.6139 C   0  0  0  0  0  0  0  0  0  0  0  0
    1.6116   23.6999    4.7680 F   0  0  0  0  0  0  0  0  0  0  0  0
   -0.8836   25.1818    4.2139 C   0  0  0  0  0  0  0  0  0  0  0  0
   -0.7949   26.5668    4.7829 C   0  0  0  0  0  0  0  0  0  0  0  0
   -0.7061   27.9518    5.3519 C   0  0  0  0  0  0  0  0  0  0  0  0
   -2.0502   28.4844    4.9519 C   0  0  0  0  0  0  0  0  0  0  0  0
   -2.4389   29.8873    5.3134 C   0  0  0  0  0  0  0  0  0  0  0  0
   -1.0949   29.3548    5.7134 C   0  0  0  0  0  0  0  0  0  0  0  0
   -2.8445   25.7828    3.5620 H   0  0  0  0  0  0  0  0  0  0  0  0
   -3.5880   24.2549    2.6460 H   0  0  0  0  0  0  0  0  0  0  0  0
   -1.7871   25.0892    3.7716 H   0  0  0  0  0  0  0  0  0  0  0  0
   -2.9745   22.9073    2.4061 H   0  0  0  0  0  0  0  0  0  0  0  0
   -0.0158   22.0135    3.3935 H   0  0  0  0  0  0  0  0  0  0  0  0
   -0.1503   19.3277    2.3084 H   0  0  0  0  0  0  0  0  0  0  0  0
    0.2739   22.8380    3.8381 H   0  0  0  0  0  0  0  0  0  0  0  0
    1.1663   25.7486    5.3508 H   0  0  0  0  0  0  0  0  0  0  0  0
   -1.7830   25.4392    3.9084 H   0  0  0  0  0  0  0  0  0  0  0  0
   -2.1748   26.8636    4.2755 H   0  0  0  0  0  0  0  0  0  0  0  0
    0.5857   26.4410    5.3559 H   0  0  0  0  0  0  0  0  0  0  0  0
    0.6687   27.9004    5.9495 H   0  0  0  0  0  0  0  0  0  0  0  0
   -3.0054   27.6139    4.1905 H   0  0  0  0  0  0  0  0  0  0  0  0
   -3.8138   29.9388    4.7158 H   0  0  0  0  0  0  0  0  0  0  0  0
   -2.3501   31.2723    5.8824 H   0  0  0  0  0  0  0  0  0  0  0  0
   -0.1396   30.2252    6.4748 H   0  0  0  0  0  0  0  0  0  0  0  0
  1  2  1  0
  2  3  1  0
  3  4  1  0
  4  5  1  0
  5  6  2  0
  2  7  1  0
  7  8  1  0
  8  9  1  0
  8 10  1  0
 10 11  1  0
 11 12  1  0
 12 13  1  0
 13 14  1  0
 14 15  1  0
  5  3  1  0
 10  7  1  0
 15 12  1  0
 15 13  1  0
  1 16  1  0
  1 17  1  0
  1 18  1  0
  2 19  1  0
  3 20  1  0
  4 21  1  0
  7 22  1  0
  8 23  1  0
 10 24  1  0
 11 25  1  0
 11 26  1  0
 12 27  1  0
 13 28  1  0
 14 29  1  0
 14 30  1  0
 15 31  1  0
M  END
