
     RDKit          2D

 50 53  0  0  0  0  0  0  0  0999 V2000
   -2.0303   26.3542   14.3656 C   0  0  0  0  0  0  0  0  0  0  0  0
   -2.4183   26.8032   12.9879 C   0  0  0  0  0  0  0  0  0  0  0  0
   -2.8062   27.2521   11.6102 C   0  0  0  0  0  0  0  0  0  0  0  0
   -3.1942   27.7011   10.2325 C   0  0  0  0  0  0  0  0  0  0  0  0
   -3.5821   28.1501    8.8549 C   0  0  0  0  0  0  0  0  0  0  0  0
   -4.5679   28.8001    7.9299 C   0  0  0  0  0  0  0  0  0  0  0  0
   -4.6063   29.0986    6.4604 C   0  0  0  0  0  0  0  0  0  0  0  0
   -3.6746   28.8706    5.3072 N   0  0  0  0  0  0  0  0  0  0  0  0
   -3.4652   29.0508    3.8329 C   0  0  0  0  0  0  0  0  0  0  0  0
   -2.1259   28.4742    3.4811 C   0  0  0  0  0  0  0  0  0  0  0  0
   -2.4796   28.9093    2.0898 C   0  0  0  0  0  0  0  0  0  0  0  0
   -0.8606   27.9886    2.8383 O   0  0  0  0  0  0  0  0  0  0  0  0
   -1.0189   27.7272    4.6095 C   0  0  0  0  0  0  0  0  0  0  0  0
    0.2955   27.0187    5.0120 C   0  0  0  0  0  0  0  0  0  0  0  0
    0.8497   26.5054    6.3079 C   0  0  0  0  0  0  0  0  0  0  0  0
    0.0548   26.6466    7.5720 C   0  0  0  0  0  0  0  0  0  0  0  0
   -1.2945   27.3011    7.5403 C   0  0  0  0  0  0  0  0  0  0  0  0
   -2.2262   27.5292    8.6935 C   0  0  0  0  0  0  0  0  0  0  0  0
   -1.3328   27.5996    6.0707 C   0  0  0  0  0  0  0  0  0  0  0  0
   -2.3187   28.2496    5.1457 N   0  0  0  0  0  0  0  0  0  0  0  0
   -1.6424   25.9052   15.7432 H   0  0  0  0  0  0  0  0  0  0  0  0
   -3.3199   26.8975   14.9058 H   0  0  0  0  0  0  0  0  0  0  0  0
   -0.7408   25.8109   13.8254 H   0  0  0  0  0  0  0  0  0  0  0  0
   -3.7198   27.3221   13.5235 H   0  0  0  0  0  0  0  0  0  0  0  0
   -1.1168   26.2843   12.4523 H   0  0  0  0  0  0  0  0  0  0  0  0
   -1.5063   26.7299   11.0740 H   0  0  0  0  0  0  0  0  0  0  0  0
   -4.1062   27.7743   12.1465 H   0  0  0  0  0  0  0  0  0  0  0  0
   -1.8566   27.1281    9.8683 H   0  0  0  0  0  0  0  0  0  0  0  0
   -4.4942   28.2233   10.7688 H   0  0  0  0  0  0  0  0  0  0  0  0
   -4.6419   28.4663    9.8682 H   0  0  0  0  0  0  0  0  0  0  0  0
   -5.3534   28.9355    9.2007 H   0  0  0  0  0  0  0  0  0  0  0  0
   -5.9160   29.4565    7.8854 H   0  0  0  0  0  0  0  0  0  0  0  0
   -5.9436   29.6719    6.8248 H   0  0  0  0  0  0  0  0  0  0  0  0
   -5.3173   29.6674    5.2685 H   0  0  0  0  0  0  0  0  0  0  0  0
   -4.8199   29.6932    3.8785 H   0  0  0  0  0  0  0  0  0  0  0  0
   -3.5918   29.2565    3.0731 H   0  0  0  0  0  0  0  0  0  0  0  0
   -2.8334   29.3444    0.6986 H   0  0  0  0  0  0  0  0  0  0  0  0
   -1.2207   28.4370    1.4248 H   0  0  0  0  0  0  0  0  0  0  0  0
   -3.1945   29.2167    2.2630 H   0  0  0  0  0  0  0  0  0  0  0  0
   -0.4892   28.0864    1.3883 H   0  0  0  0  0  0  0  0  0  0  0  0
    1.6109   26.4772    4.5363 H   0  0  0  0  0  0  0  0  0  0  0  0
    0.1981   27.3440    3.5510 H   0  0  0  0  0  0  0  0  0  0  0  0
    1.7940   25.8659    7.2823 H   0  0  0  0  0  0  0  0  0  0  0  0
    1.9728   26.1421    5.3822 H   0  0  0  0  0  0  0  0  0  0  0  0
   -0.1547   26.4663    9.0463 H   0  0  0  0  0  0  0  0  0  0  0  0
    1.2751   25.9581    8.1074 H   0  0  0  0  0  0  0  0  0  0  0  0
   -0.1818   26.6245    8.2846 H   0  0  0  0  0  0  0  0  0  0  0  0
   -1.1203   26.8537    9.4490 H   0  0  0  0  0  0  0  0  0  0  0  0
   -2.0463   27.1674   10.1381 H   0  0  0  0  0  0  0  0  0  0  0  0
    0.0164   26.9451    6.1025 H   0  0  0  0  0  0  0  0  0  0  0  0
  1  2  1  0
  2  3  1  0
  3  4  1  0
  4  5  1  0
  5  6  1  0
  6  7  1  0
  7  8  1  0
  8  9  1  0
  9 10  1  0
 10 11  1  0
 10 12  1  0
 10 13  1  0
 13 14  1  0
 14 15  1  0
 15 16  1  0
 16 17  1  0
 17 18  1  0
 17 19  1  0
 19 20  1  0
 18  5  1  0
 20  8  1  0
 19 13  1  0
 20 13  1  0
  1 21  1  0
  1 22  1  0
  1 23  1  0
  2 24  1  0
  2 25  1  0
  3 26  1  0
  3 27  1  0
  4 28  1  0
  4 29  1  0
  5 30  1  0
  6 31  1  0
  6 32  1  0
  7 33  1  0
  7 34  1  0
  9 35  1  0
  9 36  1  0
 11 37  1  0
 11 38  1  0
 11 39  1  0
 12 40  1  0
 14 41  1  0
 14 42  1  0
 15 43  1  0
 15 44  1  0
 16 45  1  0
 16 46  1  0
 17 47  1  0
 18 48  1  0
 18 49  1  0
 19 50  1  0
M  END
