
     RDKit          2D

 21 21  0  0  0  0  0  0  0  0999 V2000
   15.2492  -24.2967   -6.0073 O   0  0  0  0  0  0  0  0  0  0  0  0
   15.8686  -23.5551   -7.1546 C   0  0  0  0  0  0  0  0  0  0  0  0
   16.4879  -22.8134   -8.3019 Mg  0  0  0  0  0  2  0  0  0  0  0  0
   17.1072  -22.0717   -9.4492 C   0  0  0  0  0  0  0  0  0  0  0  0
   17.2494  -21.1209  -10.6006 C   0  0  0  0  0  0  0  0  0  0  0  0
   18.5503  -21.0296  -11.3417 C   0  0  0  0  0  0  0  0  0  0  0  0
   19.7091  -21.8891  -10.9314 N   0  0  0  0  0  0  0  0  0  0  0  0
   19.5670  -22.8398   -9.7799 O   0  0  0  0  0  0  0  0  0  0  0  0
   18.2660  -22.9311   -9.0389 C   0  0  0  0  0  0  0  0  0  0  0  0
   19.0700  -23.9445   -8.2795 O   0  0  0  0  0  0  0  0  0  0  0  0
   16.0521  -25.3119   -5.2494 H   0  0  0  0  0  0  0  0  0  0  0  0
   14.5831  -22.8121   -7.3683 H   0  0  0  0  0  0  0  0  0  0  0  0
   17.1540  -24.2980   -6.9409 H   0  0  0  0  0  0  0  0  0  0  0  0
   15.7333  -21.4698   -9.4611 H   0  0  0  0  0  0  0  0  0  0  0  0
   15.8261  -20.8492  -10.2127 H   0  0  0  0  0  0  0  0  0  0  0  0
   16.8972  -20.0758  -11.6174 H   0  0  0  0  0  0  0  0  0  0  0  0
   17.7463  -20.0162  -12.1010 H   0  0  0  0  0  0  0  0  0  0  0  0
   19.5720  -20.5864  -12.3465 H   0  0  0  0  0  0  0  0  0  0  0  0
   21.0101  -21.7978  -11.6725 H   0  0  0  0  0  0  0  0  0  0  0  0
   17.2444  -23.3744   -8.0340 H   0  0  0  0  0  0  0  0  0  0  0  0
   18.4507  -24.6863   -7.1322 H   0  0  0  0  0  0  0  0  0  0  0  0
  1  2  1  0
  2  3  1  0
  3  4  1  0
  4  5  1  0
  5  6  1  0
  6  7  1  0
  7  8  1  0
  8  9  1  0
  9 10  1  0
  9  4  1  0
  1 11  1  0
  2 12  1  0
  2 13  1  0
  4 14  1  0
  5 15  1  0
  5 16  1  0
  6 17  1  0
  6 18  1  0
  7 19  1  0
  9 20  1  0
 10 21  1  0
M  END
