
     RDKit          2D

 28 30  0  0  0  0  0  0  0  0999 V2000
   21.8708  -21.0519  -11.1852 C   0  0  0  0  0  0  0  0  0  0  0  0
   20.5295  -21.3430  -10.5801 C   0  0  0  0  0  0  0  0  0  0  0  0
   20.3074  -22.7340  -11.0957 C   0  0  0  0  0  0  0  0  0  0  0  0
   19.4536  -23.9638  -11.1896 O   0  0  0  0  0  0  0  0  0  0  0  0
   18.4190  -23.3118  -10.3209 C   0  0  0  0  0  0  0  0  0  0  0  0
   17.3845  -22.6598   -9.4522 C   0  0  0  0  0  0  0  0  0  0  0  0
   16.3499  -22.0079   -8.5835 C   0  0  0  0  0  0  0  0  0  0  0  0
   15.5156  -21.1145   -7.7142 C   0  0  0  0  0  0  0  0  0  0  0  0
   14.2588  -21.8534   -7.3614 C   0  0  0  0  0  0  0  0  0  0  0  0
   14.3164  -23.2034   -8.0126 N   0  0  0  0  0  0  0  0  0  0  0  0
   15.6088  -23.2989   -8.7679 C   0  0  0  0  0  0  0  0  0  0  0  0
   19.2728  -22.0820  -10.2270 N   0  0  0  0  0  0  0  0  0  0  0  0
   23.2121  -20.7609  -11.7904 H   0  0  0  0  0  0  0  0  0  0  0  0
   21.8607  -19.6917  -10.5534 H   0  0  0  0  0  0  0  0  0  0  0  0
   22.0443  -22.3667  -11.8862 H   0  0  0  0  0  0  0  0  0  0  0  0
   20.2858  -20.0531   -9.8543 H   0  0  0  0  0  0  0  0  0  0  0  0
   21.4507  -23.2085  -11.9429 H   0  0  0  0  0  0  0  0  0  0  0  0
   17.5653  -24.5416  -10.4147 H   0  0  0  0  0  0  0  0  0  0  0  0
   17.0014  -23.3509   -9.5576 H   0  0  0  0  0  0  0  0  0  0  0  0
   18.2379  -21.4298   -9.3590 H   0  0  0  0  0  0  0  0  0  0  0  0
   17.3073  -20.8531   -8.5807 H   0  0  0  0  0  0  0  0  0  0  0  0
   16.6474  -20.1465   -7.8932 H   0  0  0  0  0  0  0  0  0  0  0  0
   14.9177  -20.0188   -6.8823 H   0  0  0  0  0  0  0  0  0  0  0  0
   13.9237  -20.6033   -6.6033 H   0  0  0  0  0  0  0  0  0  0  0  0
   12.9319  -22.3310   -6.8500 H   0  0  0  0  0  0  0  0  0  0  0  0
   13.2661  -24.2706   -7.9240 H   0  0  0  0  0  0  0  0  0  0  0  0
   15.1165  -24.6698   -9.1259 H   0  0  0  0  0  0  0  0  0  0  0  0
   16.1961  -23.5871   -9.2234 H   0  0  0  0  0  0  0  0  0  0  0  0
  1  2  1  0
  2  3  1  0
  3  4  1  0
  4  5  1  0
  5  6  1  0
  6  7  1  0
  7  8  1  0
  8  9  1  0
  9 10  1  0
 10 11  1  0
  5 12  1  0
 12  2  1  0
 12  3  1  0
 11  7  1  0
  1 13  1  0
  1 14  1  0
  1 15  1  0
  2 16  1  0
  3 17  1  0
  5 18  1  0
  6 19  1  0
  6 20  1  0
  7 21  1  0
  8 22  1  0
  8 23  1  0
  9 24  1  0
  9 25  1  0
 10 26  1  0
 11 27  1  0
 11 28  1  0
M  END
