
     RDKit          2D

 61 61  0  0  0  0  0  0  0  0999 V2000
   16.5145  -20.9511  -12.5845 C   0  0  0  0  0  0  0  0  0  0  0  0
   16.1186  -20.4433  -11.2299 C   0  0  0  0  0  0  0  0  0  0  0  0
   15.8355  -18.9840  -11.0292 C   0  0  0  0  0  0  0  0  0  0  0  0
   16.0058  -21.3948  -10.0757 C   0  0  0  0  0  0  0  0  0  0  0  0
   15.8928  -22.3464   -8.9217 N   0  0  0  0  0  0  0  0  0  0  0  0
   17.0865  -22.6194   -8.0553 C   0  0  0  0  0  0  0  0  0  0  0  0
   18.3930  -21.9409   -8.3429 N   0  0  0  0  0  0  0  0  0  0  0  0
   18.5058  -20.9894   -9.4970 N   0  0  0  0  0  0  0  0  0  0  0  0
   19.8123  -20.3109   -9.7847 C   0  0  0  0  0  0  0  0  0  0  0  0
   19.9252  -19.3594  -10.9387 O   0  0  0  0  0  0  0  0  0  0  0  0
   16.9736  -23.5709   -6.9012 N   0  0  0  0  0  0  0  0  0  0  0  0
   18.1673  -23.8439   -6.0348 C   0  0  0  0  0  0  0  0  0  0  0  0
   19.6146  -23.5117   -5.8231 C   0  0  0  0  0  0  0  0  0  0  0  0
   20.8083  -23.7847   -4.9567 C   0  0  0  0  0  0  0  0  0  0  0  0
   21.2923  -24.5587   -3.7665 C   0  0  0  0  0  0  0  0  0  0  0  0
   20.8818  -25.5381   -2.7071 C   0  0  0  0  0  0  0  0  0  0  0  0
   22.3291  -25.2059   -2.4954 C   0  0  0  0  0  0  0  0  0  0  0  0
   23.7765  -24.8736   -2.2837 C   0  0  0  0  0  0  0  0  0  0  0  0
   19.7336  -26.3488   -2.1832 C   0  0  0  0  0  0  0  0  0  0  0  0
   18.2862  -26.6810   -2.3949 C   0  0  0  0  0  0  0  0  0  0  0  0
   17.8757  -27.6605   -1.3355 C   0  0  0  0  0  0  0  0  0  0  0  0
   17.0925  -26.4080   -3.2613 C   0  0  0  0  0  0  0  0  0  0  0  0
   16.6085  -25.6340   -4.4515 C   0  0  0  0  0  0  0  0  0  0  0  0
   17.0191  -24.6546   -5.5109 C   0  0  0  0  0  0  0  0  0  0  0  0
   15.5717  -24.9868   -5.7226 C   0  0  0  0  0  0  0  0  0  0  0  0
   16.6273  -19.9996  -13.7386 H   0  0  0  0  0  0  0  0  0  0  0  0
   16.7976  -22.4104  -12.7852 H   0  0  0  0  0  0  0  0  0  0  0  0
   15.5523  -17.5247  -10.8285 H   0  0  0  0  0  0  0  0  0  0  0  0
   16.2518  -18.7087  -12.4437 H   0  0  0  0  0  0  0  0  0  0  0  0
   15.4192  -19.2592   -9.6147 H   0  0  0  0  0  0  0  0  0  0  0  0
   16.9546  -21.1660   -9.9502 H   0  0  0  0  0  0  0  0  0  0  0  0
   14.5624  -21.6294  -10.4102 H   0  0  0  0  0  0  0  0  0  0  0  0
   19.5491  -22.0816   -7.6603 H   0  0  0  0  0  0  0  0  0  0  0  0
   17.7941  -20.7363  -10.1278 H   0  0  0  0  0  0  0  0  0  0  0  0
   21.0060  -20.5839   -8.9183 H   0  0  0  0  0  0  0  0  0  0  0  0
   15.6009  -24.1581   -6.7579 H   0  0  0  0  0  0  0  0  0  0  0  0
   18.4055  -22.8756   -7.1554 H   0  0  0  0  0  0  0  0  0  0  0  0
   19.4891  -22.7049   -6.8982 H   0  0  0  0  0  0  0  0  0  0  0  0
   20.6467  -22.6400   -6.4749 H   0  0  0  0  0  0  0  0  0  0  0  0
   21.3849  -22.8088   -5.9391 H   0  0  0  0  0  0  0  0  0  0  0  0
   21.8521  -23.4624   -4.9086 H   0  0  0  0  0  0  0  0  0  0  0  0
   21.9025  -24.1280   -4.0449 H   0  0  0  0  0  0  0  0  0  0  0  0
   22.6487  -24.5959   -3.1272 H   0  0  0  0  0  0  0  0  0  0  0  0
   21.4638  -26.1637   -1.6619 H   0  0  0  0  0  0  0  0  0  0  0  0
   22.3641  -26.0362   -1.4315 H   0  0  0  0  0  0  0  0  0  0  0  0
   22.4295  -24.5088   -3.3319 H   0  0  0  0  0  0  0  0  0  0  0  0
   25.2237  -24.5414   -2.0720 H   0  0  0  0  0  0  0  0  0  0  0  0
   23.8130  -25.7895   -1.0963 H   0  0  0  0  0  0  0  0  0  0  0  0
   23.7399  -23.9578   -3.4711 H   0  0  0  0  0  0  0  0  0  0  0  0
   20.8184  -26.7345   -1.2218 H   0  0  0  0  0  0  0  0  0  0  0  0
   19.3230  -27.3282   -1.1238 H   0  0  0  0  0  0  0  0  0  0  0  0
   16.4681  -28.1771   -1.2966 H   0  0  0  0  0  0  0  0  0  0  0  0
   18.8728  -28.1232   -0.3149 H   0  0  0  0  0  0  0  0  0  0  0  0
   16.6821  -27.3874   -2.2019 H   0  0  0  0  0  0  0  0  0  0  0  0
   15.6607  -26.8501   -3.3273 H   0  0  0  0  0  0  0  0  0  0  0  0
   15.4604  -26.4446   -3.9276 H   0  0  0  0  0  0  0  0  0  0  0  0
   15.2521  -25.5968   -5.0907 H   0  0  0  0  0  0  0  0  0  0  0  0
   16.2193  -24.0489   -6.6260 H   0  0  0  0  0  0  0  0  0  0  0  0
   14.1243  -25.3191   -5.9343 H   0  0  0  0  0  0  0  0  0  0  0  0
   15.3575  -24.1141   -6.9236 H   0  0  0  0  0  0  0  0  0  0  0  0
   15.4331  -25.9405   -4.5731 H   0  0  0  0  0  0  0  0  0  0  0  0
  1  2  2  3
  2  3  1  0
  2  4  1  0
  4  5  1  0
  5  6  2  3
  6  7  1  0
  7  8  1  0
  8  9  1  0
  9 10  2  0
  6 11  1  0
 11 12  1  0
 12 13  1  0
 13 14  1  0
 14 15  1  0
 15 16  1  0
 16 17  1  0
 17 18  1  0
 16 19  1  0
 19 20  1  0
 20 21  2  3
 20 22  1  0
 22 23  1  0
 23 24  1  0
 24 25  1  0
 24 12  1  0
  1 26  1  0
  1 27  1  0
  3 28  1  0
  3 29  1  0
  3 30  1  0
  4 31  1  0
  4 32  1  0
  7 33  1  0
  8 34  1  0
  9 35  1  0
 11 36  1  0
 12 37  1  1
 13 38  1  0
 13 39  1  0
 14 40  1  0
 14 41  1  0
 15 42  1  0
 15 43  1  0
 16 44  1  1
 17 45  1  0
 17 46  1  0
 18 47  1  0
 18 48  1  0
 18 49  1  0
 19 50  1  0
 19 51  1  0
 21 52  1  0
 21 53  1  0
 22 54  1  0
 22 55  1  0
 23 56  1  0
 23 57  1  0
 24 58  1  1
 25 59  1  0
 25 60  1  0
 25 61  1  0
M  END
