
     RDKit          2D

105113  0  0  0  0  0  0  0  0999 V2000
   15.7174  -26.2709   -9.0009 C   0  0  0  0  0  0  0  0  0  0  0  0
   16.3954  -24.9480   -9.2016 C   0  0  0  0  0  0  0  0  0  0  0  0
   15.9048  -24.0070  -10.2618 C   0  0  0  0  0  0  0  0  0  0  0  0
   15.4143  -23.0659  -11.3219 C   0  0  0  0  0  0  0  0  0  0  0  0
   16.9615  -23.0165   -9.8715 C   0  0  0  0  0  0  0  0  0  0  0  0
   18.0182  -22.0260   -9.4813 C   0  0  0  0  0  0  0  0  0  0  0  0
   17.3187  -21.3115  -10.5993 C   0  0  0  0  0  0  0  0  0  0  0  0
   18.4753  -20.6602   -9.9006 N   0  0  0  0  0  0  0  0  0  0  0  0
   19.4749  -19.5768   -9.6233 C   0  0  0  0  0  0  0  0  0  0  0  0
   19.5059  -18.6378  -10.1828 Cl  0  0  0  0  0  0  0  0  0  0  0  0
   20.6354  -19.1895   -8.7553 C   0  0  0  0  0  0  0  0  0  0  0  0
   21.0924  -17.8237   -9.1746 C   0  0  0  0  0  0  0  0  0  0  0  0
   19.9789  -17.9302  -10.1740 C   0  0  0  0  0  0  0  0  0  0  0  0
   19.0496  -17.5644  -11.2933 C   0  0  0  0  0  0  0  0  0  0  0  0
   18.1962  -18.7972  -11.3368 C   0  0  0  0  0  0  0  0  0  0  0  0
   20.1228  -16.6073  -10.8663 C   0  0  0  0  0  0  0  0  0  0  0  0
   19.8628  -15.4809  -11.8221 C   0  0  0  0  0  0  0  0  0  0  0  0
   22.2528  -17.4365   -8.3066 C   0  0  0  0  0  0  0  0  0  0  0  0
   22.5129  -18.5628   -7.3508 C   0  0  0  0  0  0  0  0  0  0  0  0
   22.9475  -19.5544   -6.3125 C   0  0  0  0  0  0  0  0  0  0  0  0
   23.3578  -20.5826   -5.2746 C   0  0  0  0  0  0  0  0  0  0  0  0
   22.3396  -21.6390   -5.5866 C   0  0  0  0  0  0  0  0  0  0  0  0
   21.7734  -20.7727   -6.6723 C   0  0  0  0  0  0  0  0  0  0  0  0
   21.3163  -22.1384   -6.2529 O   0  0  0  0  0  0  0  0  0  0  0  0
   20.3167  -23.2219   -6.5302 C   0  0  0  0  0  0  0  0  0  0  0  0
   19.8295  -22.2777   -7.5891 C   0  0  0  0  0  0  0  0  0  0  0  0
   17.4004  -22.6956   -9.6526 C   0  0  0  0  0  0  0  0  0  0  0  0
   17.6246  -21.3521  -10.2809 C   0  0  0  0  0  0  0  0  0  0  0  0
   16.7468  -20.8953  -11.4080 C   0  0  0  0  0  0  0  0  0  0  0  0
   18.7269  -20.4654   -9.7819 C   0  0  0  0  0  0  0  0  0  0  0  0
   19.8291  -19.5787   -9.2830 C   0  0  0  0  0  0  0  0  0  0  0  0
   20.9313  -18.6920   -8.7841 N   0  0  0  0  0  0  0  0  0  0  0  0
   16.2982  -23.5823  -10.1515 C   0  0  0  0  0  0  0  0  0  0  0  0
   16.0740  -24.9258   -9.5232 C   0  0  0  0  0  0  0  0  0  0  0  0
   16.9519  -25.3825   -8.3961 C   0  0  0  0  0  0  0  0  0  0  0  0
   17.5150  -26.2522   -7.3113 C   0  0  0  0  0  0  0  0  0  0  0  0
   18.0781  -27.1218   -6.2265 C   0  0  0  0  0  0  0  0  0  0  0  0
   18.6411  -27.9915   -5.1418 C   0  0  0  0  0  0  0  0  0  0  0  0
   16.4951  -27.3060   -7.6266 C   0  0  0  0  0  0  0  0  0  0  0  0
   15.4752  -28.3597   -7.9420 C   0  0  0  0  0  0  0  0  0  0  0  0
   16.9299  -28.2976   -6.5887 F   0  0  0  0  0  0  0  0  0  0  0  0
   18.0542  -24.4958   -7.8971 C   0  0  0  0  0  0  0  0  0  0  0  0
   19.1563  -23.6092   -7.3982 C   0  0  0  0  0  0  0  0  0  0  0  0
   18.2784  -23.1524   -8.5254 C   0  0  0  0  0  0  0  0  0  0  0  0
   21.5133  -19.6463   -7.6280 C   0  0  0  0  0  0  0  0  0  0  0  0
   15.7932  -27.5022   -8.1477 H   0  0  0  0  0  0  0  0  0  0  0  0
   14.5489  -26.6528   -9.8604 H   0  0  0  0  0  0  0  0  0  0  0  0
   17.4475  -25.0600   -8.1383 H   0  0  0  0  0  0  0  0  0  0  0  0
   14.7962  -24.8754  -10.7783 H   0  0  0  0  0  0  0  0  0  0  0  0
   14.9238  -22.1249  -12.3820 H   0  0  0  0  0  0  0  0  0  0  0  0
   14.2553  -23.8988  -11.7836 H   0  0  0  0  0  0  0  0  0  0  0  0
   14.3750  -24.1283  -11.5251 H   0  0  0  0  0  0  0  0  0  0  0  0
   17.4323  -23.9444   -8.7911 H   0  0  0  0  0  0  0  0  0  0  0  0
   16.4907  -22.0885  -10.9519 H   0  0  0  0  0  0  0  0  0  0  0  0
   16.1831  -22.0846  -11.2015 H   0  0  0  0  0  0  0  0  0  0  0  0
   16.7203  -20.4792  -11.6944 H   0  0  0  0  0  0  0  0  0  0  0  0
   18.4377  -19.4451  -10.6990 H   0  0  0  0  0  0  0  0  0  0  0  0
   21.7941  -18.5594   -8.0411 H   0  0  0  0  0  0  0  0  0  0  0  0
   21.4543  -16.4601   -9.6838 H   0  0  0  0  0  0  0  0  0  0  0  0
   19.0233  -19.0689  -10.3743 H   0  0  0  0  0  0  0  0  0  0  0  0
   18.3023  -16.9118  -12.4183 H   0  0  0  0  0  0  0  0  0  0  0  0
   17.1763  -19.8508  -11.6522 H   0  0  0  0  0  0  0  0  0  0  0  0
   17.4032  -18.2083  -12.4657 H   0  0  0  0  0  0  0  0  0  0  0  0
   18.3561  -19.9867  -10.4371 H   0  0  0  0  0  0  0  0  0  0  0  0
   21.2705  -15.8941  -10.2150 H   0  0  0  0  0  0  0  0  0  0  0  0
   19.6026  -14.3546  -12.7779 H   0  0  0  0  0  0  0  0  0  0  0  0
   20.9988  -14.7080  -11.2204 H   0  0  0  0  0  0  0  0  0  0  0  0
   18.7035  -16.1108  -12.5358 H   0  0  0  0  0  0  0  0  0  0  0  0
   22.2345  -16.1740   -9.1163 H   0  0  0  0  0  0  0  0  0  0  0  0
   23.4094  -16.7852   -7.6079 H   0  0  0  0  0  0  0  0  0  0  0  0
   23.6323  -18.4327   -6.3608 H   0  0  0  0  0  0  0  0  0  0  0  0
   24.0733  -18.7424   -5.7442 H   0  0  0  0  0  0  0  0  0  0  0  0
   23.9240  -21.4489   -4.1889 H   0  0  0  0  0  0  0  0  0  0  0  0
   24.3759  -19.5262   -4.9626 H   0  0  0  0  0  0  0  0  0  0  0  0
   21.4888  -22.8737   -5.6265 H   0  0  0  0  0  0  0  0  0  0  0  0
   22.9059  -22.5054   -4.5008 H   0  0  0  0  0  0  0  0  0  0  0  0
   20.5768  -24.3483   -5.5744 H   0  0  0  0  0  0  0  0  0  0  0  0
   20.9702  -21.5280   -6.9673 H   0  0  0  0  0  0  0  0  0  0  0  0
   19.5730  -21.1489   -8.5430 H   0  0  0  0  0  0  0  0  0  0  0  0
   16.6877  -19.6518  -12.2449 H   0  0  0  0  0  0  0  0  0  0  0  0
   15.6445  -21.7820  -11.9070 H   0  0  0  0  0  0  0  0  0  0  0  0
   18.9664  -21.6046   -8.8361 H   0  0  0  0  0  0  0  0  0  0  0  0
   18.0947  -19.6719  -10.8868 H   0  0  0  0  0  0  0  0  0  0  0  0
   20.2565  -20.4459   -8.1363 H   0  0  0  0  0  0  0  0  0  0  0  0
   19.5338  -18.5960  -10.3772 H   0  0  0  0  0  0  0  0  0  0  0  0
   22.0253  -18.6569   -7.7586 H   0  0  0  0  0  0  0  0  0  0  0  0
   21.4255  -17.3283   -9.1666 H   0  0  0  0  0  0  0  0  0  0  0  0
   15.1334  -24.0600  -10.9670 H   0  0  0  0  0  0  0  0  0  0  0  0
   15.8448  -22.6074  -11.1974 H   0  0  0  0  0  0  0  0  0  0  0  0
   15.1546  -26.1025   -9.6651 H   0  0  0  0  0  0  0  0  0  0  0  0
   14.9440  -25.1034  -10.4937 H   0  0  0  0  0  0  0  0  0  0  0  0
   16.2492  -26.6989   -8.2429 H   0  0  0  0  0  0  0  0  0  0  0  0
   18.5348  -25.1984   -6.9960 H   0  0  0  0  0  0  0  0  0  0  0  0
   17.0403  -28.2023   -6.3012 H   0  0  0  0  0  0  0  0  0  0  0  0
   19.1928  -26.1400   -6.0181 H   0  0  0  0  0  0  0  0  0  0  0  0
   19.2042  -28.8611   -4.0570 H   0  0  0  0  0  0  0  0  0  0  0  0
   19.7559  -27.0097   -4.9333 H   0  0  0  0  0  0  0  0  0  0  0  0
   17.5264  -28.9732   -5.3503 H   0  0  0  0  0  0  0  0  0  0  0  0
   15.5189  -27.0328   -8.7323 H   0  0  0  0  0  0  0  0  0  0  0  0
   14.4553  -29.4135   -8.2574 H   0  0  0  0  0  0  0  0  0  0  0  0
   16.1463  -29.2966   -6.9820 H   0  0  0  0  0  0  0  0  0  0  0  0
   14.8041  -27.4228   -8.9021 H   0  0  0  0  0  0  0  0  0  0  0  0
   17.3067  -23.8434   -9.0221 H   0  0  0  0  0  0  0  0  0  0  0  0
   19.2963  -24.8102   -6.5106 H   0  0  0  0  0  0  0  0  0  0  0  0
   20.8602  -20.9800   -7.4166 H   0  0  0  0  0  0  0  0  0  0  0  0
  1  2  2  3
  2  3  1  0
  3  4  1  0
  3  5  1  0
  5  6  1  0
  6  7  1  0
  7  8  1  0
  8  9  1  0
  9 10  1  0
  9 11  1  0
 11 12  1  0
 12 13  1  0
 13 14  1  0
 14 15  1  0
 14 16  1  0
 16 17  1  0
 12 18  1  0
 18 19  1  0
 19 20  1  0
 20 21  1  0
 21 22  1  0
 22 23  1  0
 23 24  1  0
 24 25  1  0
 25 26  1  0
 26 27  1  0
 27 28  1  0
 28 29  2  3
 28 30  1  0
 30 31  1  0
 31 32  1  0
 27 33  1  0
 33 34  1  0
 34 35  1  0
 35 36  1  0
 36 37  1  0
 37 38  1  0
 36 39  1  0
 39 40  1  0
 39 41  1  0
 35 42  1  0
 42 43  1  0
 43 44  1  0
 23 45  1  0
  8  6  1  0
 45 11  1  0
 44  6  1  0
 16 13  1  0
 45 19  1  0
 23 20  1  0
 43 25  1  0
 44 27  1  0
 44 42  1  0
  1 46  1  0
  1 47  1  0
  2 48  1  0
  3 49  1  0
  4 50  1  0
  4 51  1  0
  4 52  1  0
  5 53  1  0
  5 54  1  0
  7 55  1  0
  7 56  1  0
  9 57  1  0
 11 58  1  0
 12 59  1  0
 13 60  1  0
 14 61  1  0
 15 62  1  0
 15 63  1  0
 15 64  1  0
 16 65  1  0
 17 66  1  0
 17 67  1  0
 17 68  1  0
 18 69  1  0
 18 70  1  0
 19 71  1  0
 20 72  1  0
 21 73  1  0
 21 74  1  0
 22 75  1  0
 22 76  1  0
 25 77  1  0
 26 78  1  0
 26 79  1  0
 29 80  1  0
 29 81  1  0
 30 82  1  0
 30 83  1  0
 31 84  1  0
 31 85  1  0
 32 86  1  0
 32 87  1  0
 33 88  1  0
 33 89  1  0
 34 90  1  0
 34 91  1  0
 35 92  1  0
 36 93  1  0
 37 94  1  0
 37 95  1  0
 38 96  1  0
 38 97  1  0
 38 98  1  0
 39 99  1  0
 40100  1  0
 40101  1  0
 40102  1  0
 42103  1  0
 43104  1  0
 45105  1  0
M  END
