
     RDKit          2D

 86 91  0  0  0  0  0  0  0  0999 V2000
   21.2341  -18.2639  -19.8466 C   0  0  0  0  0  0  0  0  0  0  0  0
   21.6574  -18.5375  -18.4338 O   0  0  0  0  0  0  0  0  0  0  0  0
   23.1148  -18.5751  -18.0814 C   0  0  0  0  0  0  0  0  0  0  0  0
   23.4684  -18.3164  -19.5160 C   0  0  0  0  0  0  0  0  0  0  0  0
   23.8220  -18.0577  -20.9506 C   0  0  0  0  0  0  0  0  0  0  0  0
   24.1757  -17.7990  -22.3852 C   0  0  0  0  0  0  0  0  0  0  0  0
   22.3646  -18.0222  -21.3035 C   0  0  0  0  0  0  0  0  0  0  0  0
   22.7614  -18.8338  -16.6469 C   0  0  0  0  0  0  0  0  0  0  0  0
   22.4079  -19.0925  -15.2122 C   0  0  0  0  0  0  0  0  0  0  0  0
   22.5742  -19.3462  -13.7432 C   0  0  0  0  0  0  0  0  0  0  0  0
   21.3666  -19.5245  -12.8715 C   0  0  0  0  0  0  0  0  0  0  0  0
   19.9927  -19.4491  -13.4687 C   0  0  0  0  0  0  0  0  0  0  0  0
   19.6392  -19.7078  -12.0341 C   0  0  0  0  0  0  0  0  0  0  0  0
   19.2858  -19.9665  -10.5995 C   0  0  0  0  0  0  0  0  0  0  0  0
   18.9322  -20.2252   -9.1649 C   0  0  0  0  0  0  0  0  0  0  0  0
   18.5787  -20.4839   -7.7303 C   0  0  0  0  0  0  0  0  0  0  0  0
   18.2253  -20.7426   -6.2957 C   0  0  0  0  0  0  0  0  0  0  0  0
   17.8718  -21.0013   -4.8610 C   0  0  0  0  0  0  0  0  0  0  0  0
   16.4713  -20.8091   -5.3626 I   0  0  0  0  0  0  0  0  0  0  0  0
   17.5183  -21.2600   -3.4264 C   0  0  0  0  0  0  0  0  0  0  0  0
   17.1649  -21.5187   -1.9918 C   0  0  0  0  0  0  0  0  0  0  0  0
   16.0609  -21.2291   -3.7800 C   0  0  0  0  0  0  0  0  0  0  0  0
   14.6035  -21.1981   -4.1335 C   0  0  0  0  0  0  0  0  0  0  0  0
   13.1461  -21.1671   -4.4870 C   0  0  0  0  0  0  0  0  0  0  0  0
   13.2410  -20.9059   -5.9610 C   0  0  0  0  0  0  0  0  0  0  0  0
   11.9923  -20.7880   -6.7837 C   0  0  0  0  0  0  0  0  0  0  0  0
   10.7436  -20.6700   -7.6064 C   0  0  0  0  0  0  0  0  0  0  0  0
   10.6487  -20.9313   -6.1324 C   0  0  0  0  0  0  0  0  0  0  0  0
   11.8974  -21.0492   -5.3096 C   0  0  0  0  0  0  0  0  0  0  0  0
   19.6826  -20.7718   -5.9418 C   0  0  0  0  0  0  0  0  0  0  0  0
   20.9313  -20.8882   -5.1188 C   0  0  0  0  0  0  0  0  0  0  0  0
   19.5876  -21.0332   -4.4679 C   0  0  0  0  0  0  0  0  0  0  0  0
   20.0102  -21.2732   -3.0487 F   0  0  0  0  0  0  0  0  0  0  0  0
   19.8264  -19.1954  -14.9377 N   0  0  0  0  0  0  0  0  0  0  0  0
   21.0340  -19.0171  -15.8094 C   0  0  0  0  0  0  0  0  0  0  0  0
   20.8107  -17.9904  -21.2594 H   0  0  0  0  0  0  0  0  0  0  0  0
   22.6728  -18.1515  -20.2559 H   0  0  0  0  0  0  0  0  0  0  0  0
   20.4478  -18.3055  -19.7222 H   0  0  0  0  0  0  0  0  0  0  0  0
   24.5724  -18.6127  -17.7291 H   0  0  0  0  0  0  0  0  0  0  0  0
   24.2589  -18.2845  -19.6142 H   0  0  0  0  0  0  0  0  0  0  0  0
   21.9787  -18.3132  -19.6915 H   0  0  0  0  0  0  0  0  0  0  0  0
   25.2795  -18.0931  -20.5977 H   0  0  0  0  0  0  0  0  0  0  0  0
   24.5294  -17.5403  -23.8198 H   0  0  0  0  0  0  0  0  0  0  0  0
   25.6333  -17.8442  -22.0341 H   0  0  0  0  0  0  0  0  0  0  0  0
   22.7720  -17.7225  -22.9086 H   0  0  0  0  0  0  0  0  0  0  0  0
   20.9071  -17.9868  -21.6564 H   0  0  0  0  0  0  0  0  0  0  0  0
   22.5359  -17.6793  -22.7537 H   0  0  0  0  0  0  0  0  0  0  0  0
   21.8380  -18.3565  -19.9394 H   0  0  0  0  0  0  0  0  0  0  0  0
   21.3576  -18.7512  -17.1689 H   0  0  0  0  0  0  0  0  0  0  0  0
   24.2191  -18.8853  -16.2969 H   0  0  0  0  0  0  0  0  0  0  0  0
   23.9046  -19.0781  -15.1132 H   0  0  0  0  0  0  0  0  0  0  0  0
   24.0131  -19.2436  -14.1543 H   0  0  0  0  0  0  0  0  0  0  0  0
   23.2402  -19.5643  -12.4170 H   0  0  0  0  0  0  0  0  0  0  0  0
   22.4520  -19.6806  -11.8481 H   0  0  0  0  0  0  0  0  0  0  0  0
   20.6944  -19.7696  -11.5531 H   0  0  0  0  0  0  0  0  0  0  0  0
   18.4960  -19.4635  -13.5678 H   0  0  0  0  0  0  0  0  0  0  0  0
   18.1818  -19.6779  -12.3879 H   0  0  0  0  0  0  0  0  0  0  0  0
   21.0427  -19.7689  -11.5082 H   0  0  0  0  0  0  0  0  0  0  0  0
   17.8283  -19.9360  -10.9531 H   0  0  0  0  0  0  0  0  0  0  0  0
   20.7431  -19.9970  -10.2459 H   0  0  0  0  0  0  0  0  0  0  0  0
   20.3897  -20.2600   -8.8121 H   0  0  0  0  0  0  0  0  0  0  0  0
   17.4747  -20.1903   -9.5177 H   0  0  0  0  0  0  0  0  0  0  0  0
   17.1214  -20.4540   -8.0840 H   0  0  0  0  0  0  0  0  0  0  0  0
   20.0684  -20.4820   -7.5541 H   0  0  0  0  0  0  0  0  0  0  0  0
   16.7679  -20.7134   -6.6495 H   0  0  0  0  0  0  0  0  0  0  0  0
   19.1975  -21.2209   -4.1945 H   0  0  0  0  0  0  0  0  0  0  0  0
   18.9757  -21.2910   -3.0729 H   0  0  0  0  0  0  0  0  0  0  0  0
   16.8113  -21.7774   -0.5572 H   0  0  0  0  0  0  0  0  0  0  0  0
   15.6752  -21.5190   -2.1677 H   0  0  0  0  0  0  0  0  0  0  0  0
   18.6222  -21.5502   -1.6384 H   0  0  0  0  0  0  0  0  0  0  0  0
   15.5324  -21.4832   -2.3993 H   0  0  0  0  0  0  0  0  0  0  0  0
   16.2340  -20.9674   -5.2468 H   0  0  0  0  0  0  0  0  0  0  0  0
   14.2499  -21.4545   -2.6985 H   0  0  0  0  0  0  0  0  0  0  0  0
   14.9570  -20.9417   -5.5684 H   0  0  0  0  0  0  0  0  0  0  0  0
   12.5450  -21.4176   -3.1357 H   0  0  0  0  0  0  0  0  0  0  0  0
   14.5846  -20.7626   -6.6123 H   0  0  0  0  0  0  0  0  0  0  0  0
   11.3446  -20.4195   -8.9577 H   0  0  0  0  0  0  0  0  0  0  0  0
    9.2861  -20.6391   -7.9598 H   0  0  0  0  0  0  0  0  0  0  0  0
    9.3051  -21.0746   -5.4811 H   0  0  0  0  0  0  0  0  0  0  0  0
   20.4468  -20.5314   -7.2100 H   0  0  0  0  0  0  0  0  0  0  0  0
   21.9660  -20.6773   -6.1840 H   0  0  0  0  0  0  0  0  0  0  0  0
   21.8205  -21.0779   -3.9258 H   0  0  0  0  0  0  0  0  0  0  0  0
   18.1819  -21.1546   -3.9590 H   0  0  0  0  0  0  0  0  0  0  0  0
   18.4525  -19.1200  -15.5350 H   0  0  0  0  0  0  0  0  0  0  0  0
   19.9486  -18.8610  -16.8329 H   0  0  0  0  0  0  0  0  0  0  0  0
   21.7062  -18.7720  -17.1279 H   0  0  0  0  0  0  0  0  0  0  0  0
  1  2  1  0
  2  3  1  0
  3  4  1  0
  4  5  1  0
  5  6  1  0
  5  7  1  0
  3  8  1  0
  8  9  1  0
  9 10  1  0
 10 11  1  0
 11 12  1  0
 12 13  1  0
 13 14  1  0
 14 15  1  0
 15 16  1  0
 16 17  1  0
 17 18  1  0
 18 19  1  0
 18 20  1  0
 20 21  1  0
 20 22  1  0
 22 23  1  0
 23 24  1  0
 24 25  1  0
 25 26  1  0
 26 27  1  0
 27 28  1  0
 28 29  1  0
 17 30  1  0
 30 31  1  0
 31 32  1  0
 32 33  1  0
 12 34  1  0
 34 35  1  0
 35  9  1  0
 29 24  1  0
 32 30  1  0
 29 25  1  0
 28 26  1  0
 29 26  1  0
  1 36  1  0
  1 37  1  0
  1 38  1  0
  3 39  1  0
  4 40  1  0
  4 41  1  0
  5 42  1  0
  6 43  1  0
  6 44  1  0
  6 45  1  0
  7 46  1  0
  7 47  1  0
  7 48  1  0
  8 49  1  0
  8 50  1  0
  9 51  1  0
 10 52  1  0
 10 53  1  0
 11 54  1  0
 11 55  1  0
 12 56  1  0
 13 57  1  0
 13 58  1  0
 14 59  1  0
 14 60  1  0
 15 61  1  0
 15 62  1  0
 16 63  1  0
 16 64  1  0
 17 65  1  0
 18 66  1  0
 20 67  1  0
 21 68  1  0
 21 69  1  0
 21 70  1  0
 22 71  1  0
 22 72  1  0
 23 73  1  0
 23 74  1  0
 24 75  1  0
 25 76  1  0
 27 77  1  0
 27 78  1  0
 28 79  1  0
 30 80  1  0
 31 81  1  0
 31 82  1  0
 32 83  1  0
 34 84  1  0
 35 85  1  0
 35 86  1  0
M  END
