
     RDKit          2D

 63 67  0  0  0  0  0  0  0  0999 V2000
   20.2695  -18.5251  -16.6501 C   0  0  0  0  0  0  0  0  0  0  0  0
   20.2816  -18.0583  -15.2247 C   0  0  0  0  0  0  0  0  0  0  0  0
   19.3074  -18.6324  -14.2392 C   0  0  0  0  0  0  0  0  0  0  0  0
   18.3332  -19.2066  -13.2536 C   0  0  0  0  0  0  0  0  0  0  0  0
   17.3469  -20.2476  -13.6936 C   0  0  0  0  0  0  0  0  0  0  0  0
   16.3606  -21.2886  -14.1336 C   0  0  0  0  0  0  0  0  0  0  0  0
   15.7842  -22.1591  -15.2105 C   0  0  0  0  0  0  0  0  0  0  0  0
   14.6877  -23.1807  -15.2752 C   0  0  0  0  0  0  0  0  0  0  0  0
   13.7135  -23.7548  -14.2897 C   0  0  0  0  0  0  0  0  0  0  0  0
   13.4089  -24.4471  -15.5851 C   0  0  0  0  0  0  0  0  0  0  0  0
   13.1043  -25.1394  -16.8805 C   0  0  0  0  0  0  0  0  0  0  0  0
   12.7997  -25.8317  -18.1758 N   0  0  0  0  0  0  0  0  0  0  0  0
   13.4998  -27.1116  -18.5248 C   0  0  0  0  0  0  0  0  0  0  0  0
   13.4322  -23.5453  -12.8313 C   0  0  0  0  0  0  0  0  0  0  0  0
   14.0086  -22.6748  -11.7543 C   0  0  0  0  0  0  0  0  0  0  0  0
   13.1051  -23.1478  -10.6544 C   0  0  0  0  0  0  0  0  0  0  0  0
   13.0748  -22.7162   -9.2182 Mg  0  0  0  0  0  2  0  0  0  0  0  0
   13.9406  -21.7049   -8.5272 C   0  0  0  0  0  0  0  0  0  0  0  0
   14.5170  -20.8343   -7.4501 C   0  0  0  0  0  0  0  0  0  0  0  0
   13.5428  -21.4085   -6.4646 C   0  0  0  0  0  0  0  0  0  0  0  0
   12.4109  -22.3410   -6.1496 C   0  0  0  0  0  0  0  0  0  0  0  0
   12.9664  -22.2790   -7.5416 C   0  0  0  0  0  0  0  0  0  0  0  0
   15.0505  -20.8754   -9.1016 O   0  0  0  0  0  0  0  0  0  0  0  0
   15.5688  -20.8524  -10.5091 C   0  0  0  0  0  0  0  0  0  0  0  0
   16.5336  -19.8144  -10.0174 C   0  0  0  0  0  0  0  0  0  0  0  0
   16.5639  -20.2461  -11.4536 O   0  0  0  0  0  0  0  0  0  0  0  0
   15.1051  -21.6532  -11.6896 C   0  0  0  0  0  0  0  0  0  0  0  0
   16.0793  -21.0790  -12.6751 O   0  0  0  0  0  0  0  0  0  0  0  0
   20.2575  -18.9919  -18.0755 H   0  0  0  0  0  0  0  0  0  0  0  0
   21.3962  -17.5869  -16.9670 H   0  0  0  0  0  0  0  0  0  0  0  0
   19.1429  -19.4633  -16.3333 H   0  0  0  0  0  0  0  0  0  0  0  0
   21.2680  -17.0172  -14.7847 H   0  0  0  0  0  0  0  0  0  0  0  0
   18.3453  -18.7397  -11.8282 H   0  0  0  0  0  0  0  0  0  0  0  0
   17.0480  -20.0573  -12.2360 H   0  0  0  0  0  0  0  0  0  0  0  0
   17.9010  -20.1840  -15.0860 H   0  0  0  0  0  0  0  0  0  0  0  0
   17.2452  -20.8411  -15.2593 H   0  0  0  0  0  0  0  0  0  0  0  0
   16.8292  -21.4694  -16.0366 H   0  0  0  0  0  0  0  0  0  0  0  0
   15.9102  -22.5088  -16.6638 H   0  0  0  0  0  0  0  0  0  0  0  0
   15.0758  -23.2395  -16.5669 H   0  0  0  0  0  0  0  0  0  0  0  0
   14.4094  -23.6564  -15.9686 H   0  0  0  0  0  0  0  0  0  0  0  0
   12.5886  -24.7373  -14.1508 H   0  0  0  0  0  0  0  0  0  0  0  0
   12.1787  -25.0496  -14.9738 H   0  0  0  0  0  0  0  0  0  0  0  0
   14.0381  -24.1742  -15.9915 H   0  0  0  0  0  0  0  0  0  0  0  0
   12.0149  -25.9202  -16.2070 H   0  0  0  0  0  0  0  0  0  0  0  0
   14.1937  -24.3586  -17.5539 H   0  0  0  0  0  0  0  0  0  0  0  0
   11.7951  -25.2443  -19.1220 H   0  0  0  0  0  0  0  0  0  0  0  0
   14.1998  -28.3915  -18.8738 H   0  0  0  0  0  0  0  0  0  0  0  0
   12.3640  -27.8938  -17.9346 H   0  0  0  0  0  0  0  0  0  0  0  0
   14.6355  -26.3295  -19.1149 H   0  0  0  0  0  0  0  0  0  0  0  0
   12.3856  -24.5861  -13.0983 H   0  0  0  0  0  0  0  0  0  0  0  0
   12.5477  -23.9927  -11.7055 H   0  0  0  0  0  0  0  0  0  0  0  0
   14.3510  -22.8267  -13.2068 H   0  0  0  0  0  0  0  0  0  0  0  0
   12.5190  -24.0240  -11.7215 H   0  0  0  0  0  0  0  0  0  0  0  0
   11.9951  -23.9773  -10.0799 H   0  0  0  0  0  0  0  0  0  0  0  0
   15.0934  -19.9638   -6.3732 H   0  0  0  0  0  0  0  0  0  0  0  0
   15.5542  -20.1583   -8.2971 H   0  0  0  0  0  0  0  0  0  0  0  0
   13.8474  -20.7162   -5.1692 H   0  0  0  0  0  0  0  0  0  0  0  0
   12.2262  -22.0432   -4.6911 H   0  0  0  0  0  0  0  0  0  0  0  0
   11.3432  -23.3769   -6.3412 H   0  0  0  0  0  0  0  0  0  0  0  0
   12.1575  -23.2685   -8.3268 H   0  0  0  0  0  0  0  0  0  0  0  0
   16.2496  -19.6074   -8.5591 H   0  0  0  0  0  0  0  0  0  0  0  0
   17.6427  -18.8046  -10.0255 H   0  0  0  0  0  0  0  0  0  0  0  0
   16.2348  -20.6889  -11.8991 H   0  0  0  0  0  0  0  0  0  0  0  0
  1  2  1  0
  2  3  2  0
  3  4  2  0
  4  5  1  0
  5  6  1  0
  6  7  1  0
  7  8  1  0
  8  9  1  0
  9 10  1  0
 10 11  1  0
 11 12  1  0
 12 13  1  0
  9 14  1  0
 14 15  1  0
 15 16  1  0
 16 17  1  0
 17 18  1  0
 18 19  1  0
 19 20  1  0
 20 21  1  0
 21 22  1  0
 18 23  1  0
 23 24  1  0
 24 25  1  0
 25 26  1  0
 24 27  1  0
 27 28  1  0
 28  6  1  0
 27 15  1  0
 22 18  1  0
 26 24  1  0
 22 20  1  0
  1 29  1  0
  1 30  1  0
  1 31  1  0
  2 32  1  0
  4 33  1  0
  5 34  1  0
  5 35  1  0
  6 36  1  0
  7 37  1  0
  7 38  1  0
  8 39  1  0
  8 40  1  0
  9 41  1  0
 10 42  1  0
 10 43  1  0
 11 44  1  0
 11 45  1  0
 12 46  1  0
 13 47  1  0
 13 48  1  0
 13 49  1  0
 14 50  1  0
 14 51  1  0
 15 52  1  0
 16 53  1  0
 16 54  1  0
 19 55  1  0
 19 56  1  0
 20 57  1  0
 21 58  1  0
 21 59  1  0
 22 60  1  0
 25 61  1  0
 25 62  1  0
 27 63  1  0
M  END
