
     RDKit          2D

 25 27  0  0  0  0  0  0  0  0999 V2000
   -4.6067   26.5612    5.6027 C   0  0  0  0  0  0  0  0  0  0  0  0
   -3.1310   26.3044    5.6813 S   0  0  0  0  0  4  0  0  0  0  0  0
   -3.0750   27.0283    6.9939 O   0  0  0  0  0  0  0  0  0  0  0  0
   -4.3069   27.1390    7.8425 C   0  0  0  0  0  0  0  0  0  0  0  0
   -5.1991   27.5071    8.9907 C   0  0  0  0  0  0  0  0  0  0  0  0
   -3.7567   27.9185    8.9999 N   0  0  0  0  0  0  0  0  0  0  0  0
   -1.6552   26.0476    5.7600 C   0  0  0  0  0  0  0  0  0  0  0  0
   -1.7096   26.1922    7.2520 C   0  0  0  0  0  0  0  0  0  0  0  0
   -0.2338   25.9353    7.3307 C   0  0  0  0  0  0  0  0  0  0  0  0
    1.0714   25.6406    6.6528 O   0  0  0  0  0  0  0  0  0  0  0  0
   -0.1795   25.7907    5.8387 C   0  0  0  0  0  0  0  0  0  0  0  0
    0.2550   25.5846    4.4179 O   0  0  0  0  0  0  0  0  0  0  0  0
   -6.0825   26.8181    5.5240 H   0  0  0  0  0  0  0  0  0  0  0  0
   -4.8958   26.7862    6.3107 H   0  0  0  0  0  0  0  0  0  0  0  0
   -4.5908   26.2064    4.1453 H   0  0  0  0  0  0  0  0  0  0  0  0
   -3.1870   25.5805    4.3688 H   0  0  0  0  0  0  0  0  0  0  0  0
   -4.8927   26.7639    7.4531 H   0  0  0  0  0  0  0  0  0  0  0  0
   -6.4871   26.8940    8.5268 H   0  0  0  0  0  0  0  0  0  0  0  0
   -5.6441   28.0881   10.3001 H   0  0  0  0  0  0  0  0  0  0  0  0
   -2.6062   28.6060    9.6736 H   0  0  0  0  0  0  0  0  0  0  0  0
   -1.6008   25.9030    4.2680 H   0  0  0  0  0  0  0  0  0  0  0  0
   -1.7640   26.3368    8.7441 H   0  0  0  0  0  0  0  0  0  0  0  0
   -3.1546   26.4764    7.5368 H   0  0  0  0  0  0  0  0  0  0  0  0
    0.0956   26.0085    8.7923 H   0  0  0  0  0  0  0  0  0  0  0  0
    1.6945   25.2991    4.1077 H   0  0  0  0  0  0  0  0  0  0  0  0
  1  2  1  0
  2  3  1  0
  3  4  1  0
  4  5  1  0
  5  6  1  0
  2  7  1  0
  7  8  1  0
  8  9  1  0
  9 10  1  0
 10 11  1  0
 11 12  1  0
  6  4  1  0
 11  7  1  0
 11  9  1  0
  1 13  1  0
  1 14  1  0
  1 15  1  0
  2 16  1  0
  4 17  1  0
  5 18  1  0
  5 19  1  0
  6 20  1  0
  7 21  1  0
  8 22  1  0
  8 23  1  0
  9 24  1  0
 12 25  1  0
M  END
