
     RDKit          2D

 48 52  0  0  0  0  0  0  0  0999 V2000
    0.5859   29.7942    5.1679 C   0  0  0  0  0  0  0  0  0  0  0  0
    0.6610   28.2996    5.0656 C   0  0  0  0  0  0  0  0  0  0  0  0
    0.7361   26.8050    4.9633 C   0  0  0  0  0  0  0  0  0  0  0  0
    0.8112   25.3104    4.8610 C   0  0  0  0  0  0  0  0  0  0  0  0
    0.8863   23.8158    4.7587 C   0  0  0  0  0  0  0  0  0  0  0  0
    0.9614   22.3211    4.6563 C   0  0  0  0  0  0  0  0  0  0  0  0
    2.4114   21.9909    4.8526 C   0  0  0  0  0  0  0  0  0  0  0  0
    2.1007   20.5321    4.6941 C   0  0  0  0  0  0  0  0  0  0  0  0
    0.6507   20.8623    4.4978 C   0  0  0  0  0  0  0  0  0  0  0  0
   -0.4496   21.8776    4.4071 C   0  0  0  0  0  0  0  0  0  0  0  0
   -0.7449   26.7463    4.7324 C   0  0  0  0  0  0  0  0  0  0  0  0
   -2.2259   26.6877    4.5015 C   0  0  0  0  0  0  0  0  0  0  0  0
   -2.3024   28.1816    4.6128 O   0  0  0  0  0  0  0  0  0  0  0  0
   -3.7833   28.1230    4.3819 C   0  0  0  0  0  0  0  0  0  0  0  0
   -3.7068   26.6291    4.2706 O   0  0  0  0  0  0  0  0  0  0  0  0
    2.1413   28.3579    5.3007 C   0  0  0  0  0  0  0  0  0  0  0  0
    2.0082   29.7702    5.7883 C   0  0  0  0  0  0  0  0  0  0  0  0
    3.4885   29.8285    6.0234 C   0  0  0  0  0  0  0  0  0  0  0  0
    4.8370   29.1729    5.9833 C   0  0  0  0  0  0  0  0  0  0  0  0
    3.6216   28.4162    5.5359 C   0  0  0  0  0  0  0  0  0  0  0  0
    0.5107   31.2888    5.2702 H   0  0  0  0  0  0  0  0  0  0  0  0
    1.3401   30.0168    5.2985 H   0  0  0  0  0  0  0  0  0  0  0  0
   -0.8956   29.7353    4.9402 H   0  0  0  0  0  0  0  0  0  0  0  0
   -0.8175   28.4239    4.8447 H   0  0  0  0  0  0  0  0  0  0  0  0
    2.2151   26.6810    5.1800 H   0  0  0  0  0  0  0  0  0  0  0  0
    2.2920   25.3689    5.0926 H   0  0  0  0  0  0  0  0  0  0  0  0
   -0.6495   25.0700    4.6186 H   0  0  0  0  0  0  0  0  0  0  0  0
   -0.5818   23.9446    4.4797 H   0  0  0  0  0  0  0  0  0  0  0  0
    2.3362   24.0513    5.0625 H   0  0  0  0  0  0  0  0  0  0  0  0
    3.8614   21.6608    5.0489 H   0  0  0  0  0  0  0  0  0  0  0  0
    2.8966   23.3987    5.0339 H   0  0  0  0  0  0  0  0  0  0  0  0
    1.7899   19.0732    4.5356 H   0  0  0  0  0  0  0  0  0  0  0  0
    3.5507   20.2019    4.8904 H   0  0  0  0  0  0  0  0  0  0  0  0
   -0.0247   19.5385    4.2939 H   0  0  0  0  0  0  0  0  0  0  0  0
   -1.6197   20.9723    4.1595 H   0  0  0  0  0  0  0  0  0  0  0  0
   -1.2982   23.1141    4.3717 H   0  0  0  0  0  0  0  0  0  0  0  0
   -1.0001   28.2226    4.8064 H   0  0  0  0  0  0  0  0  0  0  0  0
   -0.8507   25.2557    4.6021 H   0  0  0  0  0  0  0  0  0  0  0  0
   -2.1493   25.1938    4.3902 H   0  0  0  0  0  0  0  0  0  0  0  0
   -5.2643   28.0643    4.1510 H   0  0  0  0  0  0  0  0  0  0  0  0
   -3.8598   29.6170    4.4932 H   0  0  0  0  0  0  0  0  0  0  0  0
    2.4538   26.9632    4.8455 H   0  0  0  0  0  0  0  0  0  0  0  0
    1.8751   31.1825    6.2759 H   0  0  0  0  0  0  0  0  0  0  0  0
    0.5397   30.0554    5.6781 H   0  0  0  0  0  0  0  0  0  0  0  0
    3.7430   31.2078    6.5552 H   0  0  0  0  0  0  0  0  0  0  0  0
    5.6866   30.2922    6.5079 H   0  0  0  0  0  0  0  0  0  0  0  0
    5.8905   28.1284    5.7609 H   0  0  0  0  0  0  0  0  0  0  0  0
    4.1333   27.0672    5.1258 H   0  0  0  0  0  0  0  0  0  0  0  0
  1  2  1  0
  2  3  1  0
  3  4  1  0
  4  5  1  0
  5  6  1  0
  6  7  1  0
  7  8  1  0
  8  9  1  0
  9 10  1  0
  3 11  1  0
 11 12  1  0
 12 13  1  0
 13 14  1  0
 14 15  1  0
  2 16  1  0
 16 17  1  0
 17 18  1  0
 18 19  1  0
 19 20  1  0
  9  6  1  0
 15 12  1  0
 20 16  1  0
 10  6  1  0
 20 18  1  0
  1 21  1  0
  1 22  1  0
  1 23  1  0
  2 24  1  0
  3 25  1  0
  4 26  1  0
  4 27  1  0
  5 28  1  0
  5 29  1  0
  7 30  1  0
  7 31  1  0
  8 32  1  0
  8 33  1  0
  9 34  1  0
 10 35  1  0
 10 36  1  0
 11 37  1  0
 11 38  1  0
 12 39  1  0
 14 40  1  0
 14 41  1  0
 16 42  1  0
 17 43  1  0
 17 44  1  0
 18 45  1  0
 19 46  1  0
 19 47  1  0
 20 48  1  0
M  END
