
     RDKit          2D

 29 29  0  0  0  0  0  0  0  0999 V2000
    0.5296   22.8728    4.9342 C   0  0  0  0  0  0  0  0  0  0  0  0
    0.3055   23.6780    6.1798 O   0  0  0  0  0  0  0  0  0  0  0  0
   -0.2729   25.0589    6.0864 C   0  0  0  0  0  0  0  0  0  0  0  0
   -0.7362   26.3209    6.7517 C   0  0  0  0  0  0  0  0  0  0  0  0
   -1.3142   27.6204    6.2753 C   0  0  0  0  0  0  0  0  0  0  0  0
   -1.2391   27.7528    7.7676 C   0  0  0  0  0  0  0  0  0  0  0  0
   -1.6685   28.1963    4.9363 C   0  0  0  0  0  0  0  0  0  0  0  0
   -1.5914   27.7110    3.5191 C   0  0  0  0  0  0  0  0  0  0  0  0
   -1.1281   26.4490    2.8538 C   0  0  0  0  0  0  0  0  0  0  0  0
   -0.5501   25.1495    3.3302 C   0  0  0  0  0  0  0  0  0  0  0  0
   -0.1958   24.5736    4.6691 O   0  0  0  0  0  0  0  0  0  0  0  0
    0.7538   22.0677    3.6887 H   0  0  0  0  0  0  0  0  0  0  0  0
    0.4061   24.1180    4.1071 H   0  0  0  0  0  0  0  0  0  0  0  0
    0.6795   21.5388    5.6034 H   0  0  0  0  0  0  0  0  0  0  0  0
   -0.0728   24.8522    7.4054 H   0  0  0  0  0  0  0  0  0  0  0  0
   -0.4637   25.8316    7.5610 H   0  0  0  0  0  0  0  0  0  0  0  0
   -0.7448   26.5051    7.5272 H   0  0  0  0  0  0  0  0  0  0  0  0
   -1.8223   28.9503    6.7478 H   0  0  0  0  0  0  0  0  0  0  0  0
   -1.1639   27.8851    9.2598 H   0  0  0  0  0  0  0  0  0  0  0  0
   -1.8180   29.1334    7.6743 H   0  0  0  0  0  0  0  0  0  0  0  0
   -0.8944   26.9532    7.9297 H   0  0  0  0  0  0  0  0  0  0  0  0
   -2.0780   29.3659    5.7815 H   0  0  0  0  0  0  0  0  0  0  0  0
   -2.2302   29.4156    4.2674 H   0  0  0  0  0  0  0  0  0  0  0  0
   -2.1746   29.0655    3.2446 H   0  0  0  0  0  0  0  0  0  0  0  0
   -1.8778   28.1056    2.1005 H   0  0  0  0  0  0  0  0  0  0  0  0
   -1.5434   27.1948    1.6204 H   0  0  0  0  0  0  0  0  0  0  0  0
   -0.9714   25.7877    1.5166 H   0  0  0  0  0  0  0  0  0  0  0  0
   -0.5542   24.8498    1.8604 H   0  0  0  0  0  0  0  0  0  0  0  0
   -0.0109   23.7814    3.0340 H   0  0  0  0  0  0  0  0  0  0  0  0
  1  2  1  0
  2  3  1  0
  3  4  1  0
  4  5  1  0
  5  6  1  0
  5  7  1  0
  7  8  1  0
  8  9  1  0
  9 10  1  0
 10 11  1  0
 11  3  1  0
  1 12  1  0
  1 13  1  0
  1 14  1  0
  3 15  1  0
  4 16  1  0
  4 17  1  0
  5 18  1  0
  6 19  1  0
  6 20  1  0
  6 21  1  0
  7 22  1  0
  7 23  1  0
  8 24  1  0
  8 25  1  0
  9 26  1  0
  9 27  1  0
 10 28  1  0
 10 29  1  0
M  END
