
     RDKit          2D

109118  0  0  0  0  0  0  0  0999 V2000
   -4.9019   26.3888    4.9066 C   0  0  0  0  0  0  0  0  0  0  0  0
   -3.6588   26.3046    5.7417 C   0  0  0  0  0  0  0  0  0  0  0  0
   -3.2370   24.9901    6.3285 C   0  0  0  0  0  0  0  0  0  0  0  0
   -2.8153   23.6756    6.9152 C   0  0  0  0  0  0  0  0  0  0  0  0
   -1.6248   24.3378    7.5431 C   0  0  0  0  0  0  0  0  0  0  0  0
   -2.0466   25.6523    6.9564 C   0  0  0  0  0  0  0  0  0  0  0  0
   -0.8048   25.5686    7.7936 C   0  0  0  0  0  0  0  0  0  0  0  0
   -0.4463   27.0213    7.6881 C   0  0  0  0  0  0  0  0  0  0  0  0
    0.9352   27.7269    8.4316 N   0  0  0  0  0  0  0  0  0  0  0  0
    1.9705   28.7149    8.8809 C   0  0  0  0  0  0  0  0  0  0  0  0
    3.2171   29.1318    9.6035 C   0  0  0  0  0  0  0  0  0  0  0  0
    4.4281   28.8948   10.4564 C   0  0  0  0  0  0  0  0  0  0  0  0
    5.5597   29.7093   11.0099 Cl  0  0  0  0  0  0  0  0  0  0  0  0
    5.3636   28.0512   11.2707 C   0  0  0  0  0  0  0  0  0  0  0  0
    5.8383   26.7677   11.8849 C   0  0  0  0  0  0  0  0  0  0  0  0
    7.0987   26.8600   12.6930 C   0  0  0  0  0  0  0  0  0  0  0  0
    8.3591   26.9523   13.5010 C   0  0  0  0  0  0  0  0  0  0  0  0
    7.0186   25.3910   12.9856 C   0  0  0  0  0  0  0  0  0  0  0  0
    5.7582   25.2987   12.1776 C   0  0  0  0  0  0  0  0  0  0  0  0
    6.4021   24.1369   12.8746 C   0  0  0  0  0  0  0  0  0  0  0  0
    7.2919   23.3591   13.6432 C   0  0  0  0  0  0  0  0  0  0  0  0
    7.8792   22.1525   14.3135 C   0  0  0  0  0  0  0  0  0  0  0  0
    7.9231   20.6997   14.6840 C   0  0  0  0  0  0  0  0  0  0  0  0
    7.4151   19.2884   14.6814 C   0  0  0  0  0  0  0  0  0  0  0  0
    6.4557   18.1980   14.3062 C   0  0  0  0  0  0  0  0  0  0  0  0
    5.2349   17.6447   13.6326 C   0  0  0  0  0  0  0  0  0  0  0  0
    3.9946   17.7380   12.7942 C   0  0  0  0  0  0  0  0  0  0  0  0
    2.9236   16.8073   12.3079 C   0  0  0  0  0  0  0  0  0  0  0  0
    1.8525   15.8765   11.8217 C   0  0  0  0  0  0  0  0  0  0  0  0
    0.7814   14.9458   11.3354 C   0  0  0  0  0  0  0  0  0  0  0  0
   -0.2897   14.0150   10.8491 C   0  0  0  0  0  0  0  0  0  0  0  0
    2.9804   18.4594   11.9569 C   0  0  0  0  0  0  0  0  0  0  0  0
    2.3932   19.6660   11.2867 C   0  0  0  0  0  0  0  0  0  0  0  0
    2.3492   21.1188   10.9161 C   0  0  0  0  0  0  0  0  0  0  0  0
    2.8573   22.5302   10.9188 C   0  0  0  0  0  0  0  0  0  0  0  0
    1.6463   22.7671   10.0659 C   0  0  0  0  0  0  0  0  0  0  0  0
    0.7109   23.6109    9.2517 C   0  0  0  0  0  0  0  0  0  0  0  0
   -0.5520   23.4091    8.4678 C   0  0  0  0  0  0  0  0  0  0  0  0
    0.2361   24.8943    8.6374 C   0  0  0  0  0  0  0  0  0  0  0  0
    0.3162   26.3633    8.3447 C   0  0  0  0  0  0  0  0  0  0  0  0
    0.9150   27.7451    8.4140 C   0  0  0  0  0  0  0  0  0  0  0  0
    2.6024   27.3336    9.6216 C   0  0  0  0  0  0  0  0  0  0  0  0
    4.1039   22.9470   11.6414 C   0  0  0  0  0  0  0  0  0  0  0  0
    5.1392   23.9351   12.0907 C   0  0  0  0  0  0  0  0  0  0  0  0
    5.7831   22.7734   12.7877 O   0  0  0  0  0  0  0  0  0  0  0  0
   -5.3237   27.7033    4.3199 H   0  0  0  0  0  0  0  0  0  0  0  0
   -5.7234   25.1586    4.6582 H   0  0  0  0  0  0  0  0  0  0  0  0
   -2.8374   27.5349    5.9902 H   0  0  0  0  0  0  0  0  0  0  0  0
   -4.4274   24.3279    5.7005 H   0  0  0  0  0  0  0  0  0  0  0  0
   -4.0057   23.0134    6.2872 H   0  0  0  0  0  0  0  0  0  0  0  0
   -2.3935   22.3611    7.5018 H   0  0  0  0  0  0  0  0  0  0  0  0
   -1.1825   23.0350    8.1407 H   0  0  0  0  0  0  0  0  0  0  0  0
   -2.2986   27.0462    6.4629 H   0  0  0  0  0  0  0  0  0  0  0  0
   -1.6508   27.2835    6.8335 H   0  0  0  0  0  0  0  0  0  0  0  0
   -0.3473   28.4914    7.4076 H   0  0  0  0  0  0  0  0  0  0  0  0
    1.4958   29.9984    8.2666 H   0  0  0  0  0  0  0  0  0  0  0  0
    3.8661   30.4797    9.7139 H   0  0  0  0  0  0  0  0  0  0  0  0
    2.5732   30.2935    8.9065 H   0  0  0  0  0  0  0  0  0  0  0  0
    4.4736   30.3607   10.1418 H   0  0  0  0  0  0  0  0  0  0  0  0
    6.3989   29.0391   11.7199 H   0  0  0  0  0  0  0  0  0  0  0  0
    6.4463   28.1367   11.9633 H   0  0  0  0  0  0  0  0  0  0  0  0
    7.3318   28.3292   12.5010 H   0  0  0  0  0  0  0  0  0  0  0  0
    9.6194   27.0445   14.3090 H   0  0  0  0  0  0  0  0  0  0  0  0
    8.5330   28.3775   13.0669 H   0  0  0  0  0  0  0  0  0  0  0  0
    8.1851   25.5270   13.9351 H   0  0  0  0  0  0  0  0  0  0  0  0
    7.9625   24.5593   13.8026 H   0  0  0  0  0  0  0  0  0  0  0  0
    8.5210   23.8749   14.3311 H   0  0  0  0  0  0  0  0  0  0  0  0
    7.7681   24.7814   13.6223 H   0  0  0  0  0  0  0  0  0  0  0  0
    9.1124   22.0191   15.1568 H   0  0  0  0  0  0  0  0  0  0  0  0
    8.8157   23.2696   14.6675 H   0  0  0  0  0  0  0  0  0  0  0  0
    8.9163   19.9435   15.5157 H   0  0  0  0  0  0  0  0  0  0  0  0
    9.1345   21.2902   15.3427 H   0  0  0  0  0  0  0  0  0  0  0  0
    7.9715   18.0591   15.3367 H   0  0  0  0  0  0  0  0  0  0  0  0
    8.6614   19.2354   15.5143 H   0  0  0  0  0  0  0  0  0  0  0  0
    6.4651   16.7393   14.6553 H   0  0  0  0  0  0  0  0  0  0  0  0
    7.4901   17.5121   15.1484 H   0  0  0  0  0  0  0  0  0  0  0  0
    4.6955   16.2454   13.6065 H   0  0  0  0  0  0  0  0  0  0  0  0
    5.8526   16.4617   14.3174 H   0  0  0  0  0  0  0  0  0  0  0  0
    4.0731   16.2922   13.1858 H   0  0  0  0  0  0  0  0  0  0  0  0
    3.5934   15.6668   13.0155 H   0  0  0  0  0  0  0  0  0  0  0  0
    2.1281   17.8258   11.5464 H   0  0  0  0  0  0  0  0  0  0  0  0
    2.5203   14.7367   12.5323 H   0  0  0  0  0  0  0  0  0  0  0  0
    1.1847   17.0162   11.1111 H   0  0  0  0  0  0  0  0  0  0  0  0
    0.1125   16.0859   10.6264 H   0  0  0  0  0  0  0  0  0  0  0  0
    1.4503   13.8056   12.0444 H   0  0  0  0  0  0  0  0  0  0  0  0
   -1.3608   13.0843   10.3628 H   0  0  0  0  0  0  0  0  0  0  0  0
    0.3766   12.8758   11.5620 H   0  0  0  0  0  0  0  0  0  0  0  0
   -0.9560   15.1542   10.1362 H   0  0  0  0  0  0  0  0  0  0  0  0
    1.7251   18.1156   11.2114 H   0  0  0  0  0  0  0  0  0  0  0  0
    2.3652   17.0939   11.8730 H   0  0  0  0  0  0  0  0  0  0  0  0
    1.1599   19.7995   10.4434 H   0  0  0  0  0  0  0  0  0  0  0  0
    1.4567   18.5490   10.9328 H   0  0  0  0  0  0  0  0  0  0  0  0
    1.1968   21.5471   10.0568 H   0  0  0  0  0  0  0  0  0  0  0  0
    1.1379   20.5283   10.2575 H   0  0  0  0  0  0  0  0  0  0  0  0
    2.4746   21.0825   11.0072 H   0  0  0  0  0  0  0  0  0  0  0  0
    0.5916   21.8093    9.5967 H   0  0  0  0  0  0  0  0  0  0  0  0
    1.2968   21.3127   10.1777 H   0  0  0  0  0  0  0  0  0  0  0  0
    0.1222   22.2327    9.1882 H   0  0  0  0  0  0  0  0  0  0  0  0
   -1.8148   23.2073    7.6839 H   0  0  0  0  0  0  0  0  0  0  0  0
   -0.6326   21.9951    8.9618 H   0  0  0  0  0  0  0  0  0  0  0  0
   -0.6259   24.7879    7.8819 H   0  0  0  0  0  0  0  0  0  0  0  0
   -0.9765   24.3085    7.9768 H   0  0  0  0  0  0  0  0  0  0  0  0
   -0.9455   26.2416    7.5427 H   0  0  0  0  0  0  0  0  0  0  0  0
    1.6465   25.9749    9.3118 H   0  0  0  0  0  0  0  0  0  0  0  0
    3.8533   27.3158   10.4493 H   0  0  0  0  0  0  0  0  0  0  0  0
    2.4284   25.8618    9.8531 H   0  0  0  0  0  0  0  0  0  0  0  0
    3.0740   28.7574    9.5973 H   0  0  0  0  0  0  0  0  0  0  0  0
    3.8369   21.4807   11.8104 H   0  0  0  0  0  0  0  0  0  0  0  0
    4.9549   21.9930   12.4259 H   0  0  0  0  0  0  0  0  0  0  0  0
  1  2  2  3
  2  3  1  0
  3  4  1  0
  4  5  1  0
  5  6  1  0
  6  7  1  0
  7  8  1  0
  8  9  1  0
  9 10  1  0
 10 11  1  0
 11 12  1  0
 12 13  1  0
 12 14  1  0
 14 15  1  0
 15 16  1  0
 16 17  1  0
 16 18  1  0
 18 19  1  0
 19 20  1  0
 20 21  1  0
 21 22  1  0
 22 23  1  0
 23 24  1  0
 24 25  1  0
 25 26  1  0
 26 27  1  0
 27 28  1  0
 28 29  1  0
 29 30  1  0
 30 31  1  0
 27 32  1  0
 32 33  1  0
 33 34  1  0
 34 35  1  0
 35 36  1  0
 36 37  1  0
 37 38  1  0
 37 39  1  0
 39 40  1  0
 40 41  1  0
 41 42  1  0
 35 43  1  0
 43 44  1  0
 44 45  1  0
  6  3  1  0
 39  7  1  0
  7  5  1  0
 40  9  1  0
 41 10  1  0
 18 14  1  0
 44 19  1  0
 19 15  1  0
 44 20  1  0
 45 20  1  0
  1 46  1  0
  1 47  1  0
  2 48  1  0
  3 49  1  0
  4 50  1  0
  4 51  1  0
  5 52  1  0
  6 53  1  0
  8 54  1  0
  8 55  1  0
 10 56  1  0
 11 57  1  0
 11 58  1  0
 12 59  1  0
 14 60  1  0
 15 61  1  0
 16 62  1  0
 17 63  1  0
 17 64  1  0
 17 65  1  0
 18 66  1  0
 21 67  1  0
 21 68  1  0
 22 69  1  0
 22 70  1  0
 23 71  1  0
 23 72  1  0
 24 73  1  0
 24 74  1  0
 25 75  1  0
 25 76  1  0
 26 77  1  0
 26 78  1  0
 27 79  1  0
 28 80  1  0
 28 81  1  0
 29 82  1  0
 29 83  1  0
 30 84  1  0
 30 85  1  0
 31 86  1  0
 31 87  1  0
 31 88  1  0
 32 89  1  0
 32 90  1  0
 33 91  1  0
 33 92  1  0
 34 93  1  0
 34 94  1  0
 35 95  1  0
 36 96  1  0
 36 97  1  0
 37 98  1  0
 38 99  1  0
 38100  1  0
 38101  1  0
 39102  1  0
 40103  1  0
 41104  1  0
 42105  1  0
 42106  1  0
 42107  1  0
 43108  1  0
 43109  1  0
M  END
