
     RDKit          2D

 46 45  0  0  0  0  0  0  0  0999 V2000
   18.6653  -17.1754  -12.0441 C   0  0  0  0  0  0  0  0  0  0  0  0
   18.7741  -18.2041  -10.9579 C   0  0  0  0  0  0  0  0  0  0  0  0
   18.8828  -19.2328   -9.8716 C   0  0  0  0  0  0  0  0  0  0  0  0
   18.9916  -20.2615   -8.7854 C   0  0  0  0  0  0  0  0  0  0  0  0
   19.1004  -21.2902   -7.6991 C   0  0  0  0  0  0  0  0  0  0  0  0
   19.2092  -22.3189   -6.6129 C   0  0  0  0  0  0  0  0  0  0  0  0
   17.5540  -20.6347   -8.9948 C   0  0  0  0  0  0  0  0  0  0  0  0
   16.1163  -21.0078   -9.2042 C   0  0  0  0  0  0  0  0  0  0  0  0
   14.6787  -21.3810   -9.4137 C   0  0  0  0  0  0  0  0  0  0  0  0
   15.8694  -20.8842   -7.7299 C   0  0  0  0  0  0  0  0  0  0  0  0
   15.6225  -20.7605   -6.2555 C   0  0  0  0  0  0  0  0  0  0  0  0
   15.3757  -20.6369   -4.7811 C   0  0  0  0  0  0  0  0  0  0  0  0
   13.9438  -21.0331   -4.9877 N   0  0  0  0  0  0  0  0  0  0  0  0
   16.8076  -20.2406   -4.5746 F   0  0  0  0  0  0  0  0  0  0  0  0
   15.1288  -20.5132   -3.3068 C   0  0  0  0  0  0  0  0  0  0  0  0
   13.6821  -20.1268   -3.3954 F   0  0  0  0  0  0  0  0  0  0  0  0
   14.8819  -20.3896   -1.8324 C   0  0  0  0  0  0  0  0  0  0  0  0
   14.6350  -20.2659   -0.3580 F   0  0  0  0  0  0  0  0  0  0  0  0
   18.5565  -16.1467  -13.1304 H   0  0  0  0  0  0  0  0  0  0  0  0
   19.0587  -16.1049  -11.0698 H   0  0  0  0  0  0  0  0  0  0  0  0
   18.2718  -18.2458  -13.0185 H   0  0  0  0  0  0  0  0  0  0  0  0
   17.3919  -18.6899  -11.2796 H   0  0  0  0  0  0  0  0  0  0  0  0
   20.1563  -17.7182  -10.6362 H   0  0  0  0  0  0  0  0  0  0  0  0
   20.0460  -18.4897   -9.2844 H   0  0  0  0  0  0  0  0  0  0  0  0
   18.1933  -19.5942  -10.2940 H   0  0  0  0  0  0  0  0  0  0  0  0
   20.4293  -19.8883   -8.5759 H   0  0  0  0  0  0  0  0  0  0  0  0
   20.0149  -20.3825   -6.9311 H   0  0  0  0  0  0  0  0  0  0  0  0
   18.5723  -21.8962   -8.0710 H   0  0  0  0  0  0  0  0  0  0  0  0
   19.3180  -23.3476   -5.5266 H   0  0  0  0  0  0  0  0  0  0  0  0
   18.0632  -22.9490   -7.3473 H   0  0  0  0  0  0  0  0  0  0  0  0
   20.3505  -21.5576   -6.0063 H   0  0  0  0  0  0  0  0  0  0  0  0
   17.2982  -20.5575   -8.1503 H   0  0  0  0  0  0  0  0  0  0  0  0
   17.6027  -20.7656   -9.8694 H   0  0  0  0  0  0  0  0  0  0  0  0
   16.3632  -21.1315  -10.6786 H   0  0  0  0  0  0  0  0  0  0  0  0
   13.2410  -21.7542   -9.6231 H   0  0  0  0  0  0  0  0  0  0  0  0
   14.7182  -20.7508  -10.0347 H   0  0  0  0  0  0  0  0  0  0  0  0
   14.5112  -20.8045  -10.0649 H   0  0  0  0  0  0  0  0  0  0  0  0
   14.6948  -21.7644   -8.0387 H   0  0  0  0  0  0  0  0  0  0  0  0
   14.6346  -21.7343   -7.6794 H   0  0  0  0  0  0  0  0  0  0  0  0
   14.4410  -21.6308   -6.5663 H   0  0  0  0  0  0  0  0  0  0  0  0
   16.8642  -19.9204   -6.3040 H   0  0  0  0  0  0  0  0  0  0  0  0
   12.7626  -20.6110   -4.1651 H   0  0  0  0  0  0  0  0  0  0  0  0
   13.4013  -21.9322   -6.0589 H   0  0  0  0  0  0  0  0  0  0  0  0
   16.5560  -20.8873   -3.0364 H   0  0  0  0  0  0  0  0  0  0  0  0
   16.0949  -19.5167   -1.7025 H   0  0  0  0  0  0  0  0  0  0  0  0
   13.6689  -21.2624   -1.9623 H   0  0  0  0  0  0  0  0  0  0  0  0
  1  2  1  0
  2  3  1  0
  3  4  1  0
  4  5  1  0
  5  6  1  0
  4  7  1  0
  7  8  1  0
  8  9  1  0
  8 10  1  0
 10 11  1  0
 11 12  1  0
 12 13  1  0
 12 14  1  0
 12 15  1  0
 15 16  1  0
 15 17  1  0
 17 18  1  0
  1 19  1  0
  1 20  1  0
  1 21  1  0
  2 22  1  0
  2 23  1  0
  3 24  1  0
  3 25  1  0
  4 26  1  0
  5 27  1  0
  5 28  1  0
  6 29  1  0
  6 30  1  0
  6 31  1  0
  7 32  1  0
  7 33  1  0
  8 34  1  0
  9 35  1  0
  9 36  1  0
  9 37  1  0
 10 38  1  0
 10 39  1  0
 11 40  1  0
 11 41  1  0
 13 42  1  0
 13 43  1  0
 15 44  1  0
 17 45  1  0
 17 46  1  0
M  END
