
     RDKit          2D

 25 26  0  0  0  0  0  0  0  0999 V2000
   -2.2883   17.3825   -0.7074 C   0  0  0  0  0  0  0  0  0  0  0  0
   -2.1245   18.5801    0.1807 C   0  0  0  0  0  0  0  0  0  0  0  0
   -1.9607   19.7778    1.0688 C   0  0  0  0  0  0  0  0  0  0  0  0
   -1.7969   20.9756    1.9569 C   0  0  0  0  0  0  0  0  0  0  0  0
   -1.6016   20.0726    3.1387 C   0  0  0  0  0  0  0  0  0  0  0  0
   -1.4378   21.2703    4.0267 C   0  0  0  0  0  0  0  0  0  0  0  0
   -1.2176   22.0869    5.2656 C   0  0  0  0  0  0  0  0  0  0  0  0
   -1.2185   20.5890    5.3449 C   0  0  0  0  0  0  0  0  0  0  0  0
   -1.7655   18.8748    2.2505 C   0  0  0  0  0  0  0  0  0  0  0  0
   -2.4522   16.1850   -1.5957 H   0  0  0  0  0  0  0  0  0  0  0  0
   -2.0972   16.4795    0.4749 H   0  0  0  0  0  0  0  0  0  0  0  0
   -2.4795   18.2856   -1.8898 H   0  0  0  0  0  0  0  0  0  0  0  0
   -2.0243   17.9648    0.8098 H   0  0  0  0  0  0  0  0  0  0  0  0
   -2.3157   19.4831   -1.0018 H   0  0  0  0  0  0  0  0  0  0  0  0
   -2.1560   20.6809   -0.1129 H   0  0  0  0  0  0  0  0  0  0  0  0
   -1.9922   21.8785    0.7751 H   0  0  0  0  0  0  0  0  0  0  0  0
   -1.6957   21.9224    2.4945 H   0  0  0  0  0  0  0  0  0  0  0  0
   -1.4452   19.1346    4.0969 H   0  0  0  0  0  0  0  0  0  0  0  0
   -1.5380   22.1550    3.3921 H   0  0  0  0  0  0  0  0  0  0  0  0
   -1.3035   23.4677    4.6860 H   0  0  0  0  0  0  0  0  0  0  0  0
   -0.9676   22.4239    6.7057 H   0  0  0  0  0  0  0  0  0  0  0  0
   -0.9688   20.4058    6.8126 H   0  0  0  0  0  0  0  0  0  0  0  0
   -1.2707   19.2596    5.1158 H   0  0  0  0  0  0  0  0  0  0  0  0
   -1.5702   17.9719    3.4323 H   0  0  0  0  0  0  0  0  0  0  0  0
   -1.8474   18.1080    1.8151 H   0  0  0  0  0  0  0  0  0  0  0  0
  1  2  1  0
  2  3  1  0
  3  4  1  0
  4  5  1  0
  5  6  1  0
  6  7  1  0
  7  8  1  0
  5  9  1  0
  9  3  1  0
  8  6  1  0
  1 10  1  0
  1 11  1  0
  1 12  1  0
  2 13  1  0
  2 14  1  0
  3 15  1  0
  4 16  1  0
  4 17  1  0
  5 18  1  0
  6 19  1  0
  7 20  1  0
  7 21  1  0
  8 22  1  0
  8 23  1  0
  9 24  1  0
  9 25  1  0
M  END
