
     RDKit          2D

 54 57  0  0  0  0  0  0  0  0999 V2000
   16.3715  -18.2483  -17.8350 C   0  0  0  0  0  0  0  0  0  0  0  0
   16.8484  -18.3183  -16.4146 C   0  0  0  0  0  0  0  0  0  0  0  0
   18.1585  -17.7139  -16.8247 N   0  0  0  0  0  0  0  0  0  0  0  0
   17.3254  -18.3883  -14.9942 C   0  0  0  0  0  0  0  0  0  0  0  0
   17.8024  -18.4582  -13.5738 C   0  0  0  0  0  0  0  0  0  0  0  0
   18.2793  -18.5283  -12.1533 C   0  0  0  0  0  0  0  0  0  0  0  0
   18.7563  -18.5982  -10.7329 C   0  0  0  0  0  0  0  0  0  0  0  0
   19.2333  -18.6682   -9.3125 C   0  0  0  0  0  0  0  0  0  0  0  0
   19.7103  -18.7381   -7.8920 N   0  0  0  0  0  0  0  0  0  0  0  0
   21.0850  -18.2539   -7.5378 C   0  0  0  0  0  0  0  0  0  0  0  0
   18.8124  -19.2924   -6.8258 C   0  0  0  0  0  0  0  0  0  0  0  0
   19.7094  -19.1530   -5.6317 N   0  0  0  0  0  0  0  0  0  0  0  0
   21.0843  -18.5747   -5.7898 O   0  0  0  0  0  0  0  0  0  0  0  0
   19.2314  -19.5920   -4.2793 C   0  0  0  0  0  0  0  0  0  0  0  0
   17.8571  -20.1720   -4.1215 C   0  0  0  0  0  0  0  0  0  0  0  0
   18.7534  -20.0310   -2.9270 C   0  0  0  0  0  0  0  0  0  0  0  0
   20.1277  -19.4510   -3.0849 C   0  0  0  0  0  0  0  0  0  0  0  0
   20.6042  -19.5198   -1.6642 C   0  0  0  0  0  0  0  0  0  0  0  0
   21.3365  -18.8472   -3.7361 N   0  0  0  0  0  0  0  0  0  0  0  0
   17.6031  -19.8950   -6.1744 C   0  0  0  0  0  0  0  0  0  0  0  0
   16.3943  -20.2268   -6.9983 C   0  0  0  0  0  0  0  0  0  0  0  0
   15.4965  -20.7810   -5.9321 O   0  0  0  0  0  0  0  0  0  0  0  0
   17.6036  -19.6242   -7.6497 N   0  0  0  0  0  0  0  0  0  0  0  0
   15.8945  -18.1784  -19.2554 H   0  0  0  0  0  0  0  0  0  0  0  0
   17.6113  -17.6340  -18.4142 H   0  0  0  0  0  0  0  0  0  0  0  0
   15.0637  -18.8588  -17.4260 H   0  0  0  0  0  0  0  0  0  0  0  0
   15.5383  -18.9228  -16.0044 H   0  0  0  0  0  0  0  0  0  0  0  0
   18.5051  -16.2551  -16.8696 H   0  0  0  0  0  0  0  0  0  0  0  0
   19.3890  -18.4449  -17.2734 H   0  0  0  0  0  0  0  0  0  0  0  0
   16.4487  -17.2231  -14.6424 H   0  0  0  0  0  0  0  0  0  0  0  0
   18.2537  -19.5534  -15.1701 H   0  0  0  0  0  0  0  0  0  0  0  0
   19.1130  -17.8551  -13.9841 H   0  0  0  0  0  0  0  0  0  0  0  0
   16.4918  -19.0615  -13.1634 H   0  0  0  0  0  0  0  0  0  0  0  0
   16.9666  -19.1262  -11.7420 H   0  0  0  0  0  0  0  0  0  0  0  0
   19.5921  -17.9303  -12.5647 H   0  0  0  0  0  0  0  0  0  0  0  0
   20.1154  -18.1347  -11.1664 H   0  0  0  0  0  0  0  0  0  0  0  0
   17.3972  -19.0617  -10.2994 H   0  0  0  0  0  0  0  0  0  0  0  0
   17.8634  -19.0933   -8.8734 H   0  0  0  0  0  0  0  0  0  0  0  0
   20.6031  -18.2430   -9.7515 H   0  0  0  0  0  0  0  0  0  0  0  0
   22.4597  -17.7696   -7.1835 H   0  0  0  0  0  0  0  0  0  0  0  0
   21.3281  -17.8940   -8.9735 H   0  0  0  0  0  0  0  0  0  0  0  0
   21.1364  -18.3772   -6.7519 H   0  0  0  0  0  0  0  0  0  0  0  0
   22.2134  -18.2974   -4.8422 H   0  0  0  0  0  0  0  0  0  0  0  0
   16.9421  -20.3233   -5.3005 H   0  0  0  0  0  0  0  0  0  0  0  0
   16.6483  -20.7759   -3.4703 H   0  0  0  0  0  0  0  0  0  0  0  0
   18.2754  -20.4700   -1.5747 H   0  0  0  0  0  0  0  0  0  0  0  0
   21.0806  -19.5885   -0.2436 H   0  0  0  0  0  0  0  0  0  0  0  0
   21.9163  -18.9203   -2.0753 H   0  0  0  0  0  0  0  0  0  0  0  0
   19.2921  -20.1192   -1.2531 H   0  0  0  0  0  0  0  0  0  0  0  0
   22.4176  -19.7339   -4.2791 H   0  0  0  0  0  0  0  0  0  0  0  0
   21.7803  -17.4404   -4.0079 H   0  0  0  0  0  0  0  0  0  0  0  0
   17.1022  -20.3412   -4.8328 H   0  0  0  0  0  0  0  0  0  0  0  0
   15.4974  -20.3661   -8.1924 H   0  0  0  0  0  0  0  0  0  0  0  0
   14.1218  -21.2653   -6.2863 H   0  0  0  0  0  0  0  0  0  0  0  0
  1  2  1  0
  2  3  1  0
  2  4  1  0
  4  5  1  0
  5  6  1  0
  6  7  1  0
  7  8  1  0
  8  9  1  0
  9 10  1  0
  9 11  1  0
 11 12  1  0
 12 13  1  0
 12 14  1  0
 14 15  1  0
 15 16  1  0
 16 17  1  0
 17 18  1  0
 17 19  1  0
 11 20  1  0
 20 21  1  0
 21 22  1  0
 21 23  1  0
 23 11  1  0
 16 14  1  0
 23 20  1  0
 17 14  1  0
  1 24  1  0
  1 25  1  0
  1 26  1  0
  2 27  1  0
  3 28  1  0
  3 29  1  0
  4 30  1  0
  4 31  1  0
  5 32  1  0
  5 33  1  0
  6 34  1  0
  6 35  1  0
  7 36  1  0
  7 37  1  0
  8 38  1  0
  8 39  1  0
 10 40  1  0
 10 41  1  0
 10 42  1  0
 13 43  1  0
 15 44  1  0
 15 45  1  0
 16 46  1  0
 18 47  1  0
 18 48  1  0
 18 49  1  0
 19 50  1  0
 19 51  1  0
 20 52  1  0
 21 53  1  0
 22 54  1  0
M  END
