
     RDKit          2D

 19 21  0  0  0  0  0  0  0  0999 V2000
    1.4652   26.1401    1.2020 O   0  0  0  0  0  1  0  0  0  0  0  0
    0.0534   26.5822    1.4496 C   0  0  0  0  0  0  0  0  0  0  0  0
   -0.7984   27.0473    0.3059 N   0  0  0  0  0  2  0  0  0  0  0  0
   -1.3584   27.0244    1.6972 C   0  0  0  0  0  0  0  0  0  0  0  0
   -0.5066   26.5593    2.8410 N   0  0  0  0  0  0  0  0  0  0  0  0
   -0.3381   26.2775    4.3047 N   0  0  0  0  0  0  0  0  0  0  0  0
    0.9688   25.7538    4.8221 C   0  0  0  0  0  0  0  0  0  0  0  0
    2.2757   25.2300    5.3394 C   0  0  0  0  0  0  0  0  0  0  0  0
    3.0542   25.1616    4.0590 F   0  0  0  0  0  0  0  0  0  0  0  0
    3.3123   24.7300    6.3014 C   0  0  0  0  0  0  0  0  0  0  0  0
    1.9511   25.1165    6.7995 C   0  0  0  0  0  0  0  0  0  0  0  0
   -2.7702   27.4665    1.9449 H   0  0  0  0  0  0  0  0  0  0  0  0
   -1.4765   26.5196    5.2509 H   0  0  0  0  0  0  0  0  0  0  0  0
    1.5288   25.7769    3.4307 H   0  0  0  0  0  0  0  0  0  0  0  0
    0.3252   25.7906    6.0081 H   0  0  0  0  0  0  0  0  0  0  0  0
    4.4507   24.4880    5.3551 H   0  0  0  0  0  0  0  0  0  0  0  0
    3.9535   24.3140    7.5921 H   0  0  0  0  0  0  0  0  0  0  0  0
    2.1196   24.8347    8.2631 H   0  0  0  0  0  0  0  0  0  0  0  0
    0.6744   25.5271    6.9531 H   0  0  0  0  0  0  0  0  0  0  0  0
  1  2  1  0
  2  3  1  0
  3  4  1  0
  4  5  1  0
  5  6  1  0
  6  7  1  0
  7  8  1  0
  8  9  1  0
  8 10  1  0
 10 11  1  0
  4  2  1  0
 11  8  1  0
  5  2  1  0
  4 12  1  0
  6 13  1  0
  7 14  1  0
  7 15  1  0
 10 16  1  0
 10 17  1  0
 11 18  1  0
 11 19  1  0
M  RAD  2   1   2   3   2
M  END
