
     RDKit          2D

104113  0  0  0  0  0  0  0  0999 V2000
   -0.0161   29.6102    3.2005 C   0  0  0  0  0  0  0  0  0  0  0  0
   -0.9140   28.6624    3.9390 C   0  0  0  0  0  0  0  0  0  0  0  0
   -0.3760   27.3543    4.4378 C   0  0  0  0  0  0  0  0  0  0  0  0
    0.1622   26.0459    4.9367 C   0  0  0  0  0  0  0  0  0  0  0  0
    0.7003   24.7376    5.4356 C   0  0  0  0  0  0  0  0  0  0  0  0
    2.0114   24.0092    5.4171 C   0  0  0  0  0  0  0  0  0  0  0  0
    2.9229   22.8589    5.7273 C   0  0  0  0  0  0  0  0  0  0  0  0
    3.2541   21.5148    6.3048 C   0  0  0  0  0  0  0  0  0  0  0  0
    4.5398   21.9855    5.6921 Cl  0  0  0  0  0  0  0  0  0  0  0  0
    2.9396   20.2429    7.0351 C   0  0  0  0  0  0  0  0  0  0  0  0
    2.0415   19.2952    7.7736 C   0  0  0  0  0  0  0  0  0  0  0  0
    3.4306   18.7445    7.6431 C   0  0  0  0  0  0  0  0  0  0  0  0
    4.8198   18.1938    7.5126 C   0  0  0  0  0  0  0  0  0  0  0  0
    3.8509   19.9799    6.9033 O   0  0  0  0  0  0  0  0  0  0  0  0
    3.0105   17.5091    8.3829 C   0  0  0  0  0  0  0  0  0  0  0  0
    2.5903   16.2738    9.1227 C   0  0  0  0  0  0  0  0  0  0  0  0
    0.7379   18.8593    8.3741 C   0  0  0  0  0  0  0  0  0  0  0  0
   -0.6204   17.6297    9.3888 C   0  0  0  0  0  0  0  0  0  0  0  0
   -1.9073   18.4002    9.3791 C   0  0  0  0  0  0  0  0  0  0  0  0
   -2.0243   19.7503    8.7360 C   0  0  0  0  0  0  0  0  0  0  0  0
   -2.9358   20.9005    8.4258 C   0  0  0  0  0  0  0  0  0  0  0  0
   -3.2670   22.2447    7.8483 C   0  0  0  0  0  0  0  0  0  0  0  0
   -2.9525   23.5166    7.1180 C   0  0  0  0  0  0  0  0  0  0  0  0
   -4.3861   23.4772    7.5576 C   0  0  0  0  0  0  0  0  0  0  0  0
   -3.6854   24.7598    6.7089 N   0  0  0  0  0  0  0  0  0  0  0  0
   -2.0544   24.4643    6.3795 C   0  0  0  0  0  0  0  0  0  0  0  0
   -0.7508   24.9001    5.7790 C   0  0  0  0  0  0  0  0  0  0  0  0
   -0.6509   26.2259    5.0845 C   0  0  0  0  0  0  0  0  0  0  0  0
   -1.8547   27.1159    4.9905 C   0  0  0  0  0  0  0  0  0  0  0  0
   -0.9566   28.0636    4.2520 C   0  0  0  0  0  0  0  0  0  0  0  0
   -1.2879   29.4077    3.6745 C   0  0  0  0  0  0  0  0  0  0  0  0
   -2.5990   30.1362    3.6930 C   0  0  0  0  0  0  0  0  0  0  0  0
   -3.9026   29.7004    4.2934 C   0  0  0  0  0  0  0  0  0  0  0  0
   -4.9722   30.7321    4.0890 C   0  0  0  0  0  0  0  0  0  0  0  0
   -6.3562   30.4918    4.6149 C   0  0  0  0  0  0  0  0  0  0  0  0
   -6.6709   29.2200    5.3452 C   0  0  0  0  0  0  0  0  0  0  0  0
   -5.6013   28.1882    5.5497 C   0  0  0  0  0  0  0  0  0  0  0  0
   -4.2172   28.4285    5.0237 C   0  0  0  0  0  0  0  0  0  0  0  0
   -3.3058   27.2783    5.3339 C   0  0  0  0  0  0  0  0  0  0  0  0
   -3.9276   26.1400    6.0872 C   0  0  0  0  0  0  0  0  0  0  0  0
   -5.0339   27.0453    6.5420 C   0  0  0  0  0  0  0  0  0  0  0  0
   -5.6558   25.9069    7.2953 N   0  0  0  0  0  0  0  0  0  0  0  0
   -4.5495   25.0017    6.8405 O   0  0  0  0  0  0  0  0  0  0  0  0
   -1.9545   25.7901    5.6850 C   0  0  0  0  0  0  0  0  0  0  0  0
   -0.7132   19.0218    8.7175 C   0  0  0  0  0  0  0  0  0  0  0  0
   -0.3859   30.9500    2.6365 H   0  0  0  0  0  0  0  0  0  0  0  0
    1.4201   29.2496    2.9608 H   0  0  0  0  0  0  0  0  0  0  0  0
   -2.3502   29.0231    4.1787 H   0  0  0  0  0  0  0  0  0  0  0  0
    0.9716   27.6929    3.8727 H   0  0  0  0  0  0  0  0  0  0  0  0
   -1.8137   27.3421    4.8656 H   0  0  0  0  0  0  0  0  0  0  0  0
    1.5096   26.1419    4.2847 H   0  0  0  0  0  0  0  0  0  0  0  0
   -1.2212   26.1128    5.5128 H   0  0  0  0  0  0  0  0  0  0  0  0
    1.6292   25.6586    4.7014 H   0  0  0  0  0  0  0  0  0  0  0  0
    2.2870   25.2931    4.6922 H   0  0  0  0  0  0  0  0  0  0  0  0
    3.3320   24.4098    4.8294 H   0  0  0  0  0  0  0  0  0  0  0  0
    3.7893   23.8327    4.9850 H   0  0  0  0  0  0  0  0  0  0  0  0
    4.3736   22.6599    5.4023 H   0  0  0  0  0  0  0  0  0  0  0  0
    4.5477   20.7554    6.3070 H   0  0  0  0  0  0  0  0  0  0  0  0
    4.3351   20.4466    6.5242 H   0  0  0  0  0  0  0  0  0  0  0  0
    3.9538   19.1650    7.2789 H   0  0  0  0  0  0  0  0  0  0  0  0
    1.9813   17.9627    8.4598 H   0  0  0  0  0  0  0  0  0  0  0  0
    6.2089   17.6432    7.3820 H   0  0  0  0  0  0  0  0  0  0  0  0
    4.5712   16.8990    8.2278 H   0  0  0  0  0  0  0  0  0  0  0  0
    5.4071   19.3544    6.7655 H   0  0  0  0  0  0  0  0  0  0  0  0
    5.2127   20.2827    6.3522 H   0  0  0  0  0  0  0  0  0  0  0  0
    4.2548   16.7113    8.1280 H   0  0  0  0  0  0  0  0  0  0  0  0
    1.6422   17.8430    8.8992 H   0  0  0  0  0  0  0  0  0  0  0  0
    2.1700   15.0384    9.8625 H   0  0  0  0  0  0  0  0  0  0  0  0
    3.9797   15.7237    8.9934 H   0  0  0  0  0  0  0  0  0  0  0  0
    1.1404   16.5085    9.4271 H   0  0  0  0  0  0  0  0  0  0  0  0
    0.8944   17.5081    9.0062 H   0  0  0  0  0  0  0  0  0  0  0  0
   -1.2909   16.5194   10.1423 H   0  0  0  0  0  0  0  0  0  0  0  0
    0.4661   16.6134    9.5806 H   0  0  0  0  0  0  0  0  0  0  0  0
   -2.5292   17.2619   10.1324 H   0  0  0  0  0  0  0  0  0  0  0  0
   -3.2963   19.2544    9.3573 H   0  0  0  0  0  0  0  0  0  0  0  0
   -3.8022   19.9268    9.1681 H   0  0  0  0  0  0  0  0  0  0  0  0
   -4.3865   21.0996    8.7507 H   0  0  0  0  0  0  0  0  0  0  0  0
   -4.4612   21.6231    8.5099 H   0  0  0  0  0  0  0  0  0  0  0  0
   -4.6311   22.8622    7.9380 H   0  0  0  0  0  0  0  0  0  0  0  0
   -5.8197   23.4379    7.9972 H   0  0  0  0  0  0  0  0  0  0  0  0
   -5.1094   24.7248    7.1449 H   0  0  0  0  0  0  0  0  0  0  0  0
   -4.3381   22.1310    8.2174 H   0  0  0  0  0  0  0  0  0  0  0  0
   -5.1247   24.7574    7.1316 H   0  0  0  0  0  0  0  0  0  0  0  0
   -2.8190   25.7334    5.9666 H   0  0  0  0  0  0  0  0  0  0  0  0
   -3.2418   25.3745    6.2705 H   0  0  0  0  0  0  0  0  0  0  0  0
    0.6528   26.6617    4.4841 H   0  0  0  0  0  0  0  0  0  0  0  0
    0.2990   27.2441    4.2955 H   0  0  0  0  0  0  0  0  0  0  0  0
    0.4150   28.3402    3.7115 H   0  0  0  0  0  0  0  0  0  0  0  0
    0.0637   29.7370    3.1135 H   0  0  0  0  0  0  0  0  0  0  0  0
   -0.9733   30.6796    2.9442 H   0  0  0  0  0  0  0  0  0  0  0  0
   -1.8466   31.1943    2.9417 H   0  0  0  0  0  0  0  0  0  0  0  0
   -3.5104   31.2865    3.3827 H   0  0  0  0  0  0  0  0  0  0  0  0
   -4.6576   32.0039    3.3587 H   0  0  0  0  0  0  0  0  0  0  0  0
   -7.8060   30.7209    4.9245 H   0  0  0  0  0  0  0  0  0  0  0  0
   -6.5453   31.8433    3.9921 H   0  0  0  0  0  0  0  0  0  0  0  0
   -7.4509   28.1810    6.0950 H   0  0  0  0  0  0  0  0  0  0  0  0
   -8.0113   29.8907    5.4012 H   0  0  0  0  0  0  0  0  0  0  0  0
   -6.2493   27.0647    6.3032 H   0  0  0  0  0  0  0  0  0  0  0  0
   -4.9604   27.3642    5.7754 H   0  0  0  0  0  0  0  0  0  0  0  0
   -2.7539   25.3802    5.5441 H   0  0  0  0  0  0  0  0  0  0  0  0
   -6.1401   27.9505    6.9967 H   0  0  0  0  0  0  0  0  0  0  0  0
   -4.6981   28.3688    5.9211 H   0  0  0  0  0  0  0  0  0  0  0  0
   -6.8777   25.7420    8.1495 H   0  0  0  0  0  0  0  0  0  0  0  0
   -0.6252   17.6732    9.3684 H   0  0  0  0  0  0  0  0  0  0  0  0
  1  2  2  3
  2  3  1  0
  3  4  1  0
  4  5  1  0
  5  6  1  0
  6  7  1  0
  7  8  1  0
  8  9  1  0
  8 10  1  0
 10 11  1  0
 11 12  1  0
 12 13  1  0
 12 14  1  0
 12 15  1  0
 15 16  1  0
 11 17  1  0
 17 18  1  0
 18 19  1  0
 19 20  1  0
 20 21  1  0
 21 22  1  0
 22 23  1  0
 23 24  1  0
 23 25  1  0
 23 26  1  0
 26 27  1  0
 27 28  1  0
 28 29  1  0
 29 30  1  0
 30 31  1  0
 31 32  1  0
 32 33  1  0
 33 34  2  0
 34 35  1  0
 35 36  1  0
 36 37  1  0
 37 38  1  0
 38 39  1  0
 39 40  1  0
 40 41  1  0
 41 42  1  0
 42 43  1  0
 29 44  1  0
 20 45  1  0
 27  5  1  0
 44 28  1  0
 45 17  1  0
 45 19  1  0
 44 26  1  0
 44 27  1  0
 39 29  1  0
 43 40  1  0
 38 33  1  0
 39 37  1  0
  1 46  1  0
  1 47  1  0
  2 48  1  0
  3 49  1  0
  3 50  1  0
  4 51  1  0
  4 52  1  0
  5 53  1  0
  6 54  1  0
  6 55  1  0
  7 56  1  0
  7 57  1  0
  8 58  1  0
 10 59  1  0
 10 60  1  0
 11 61  1  0
 13 62  1  0
 13 63  1  0
 13 64  1  0
 14 65  1  0
 15 66  1  0
 15 67  1  0
 16 68  1  0
 16 69  1  0
 16 70  1  0
 17 71  1  0
 18 72  1  0
 18 73  1  0
 19 74  1  0
 20 75  1  0
 21 76  1  0
 21 77  1  0
 22 78  1  0
 22 79  1  0
 24 80  1  0
 24 81  1  0
 24 82  1  0
 25 83  1  0
 25 84  1  0
 26 85  1  0
 28 86  1  0
 30 87  1  0
 30 88  1  0
 31 89  1  0
 31 90  1  0
 32 91  1  0
 32 92  1  0
 34 93  1  0
 35 94  1  0
 35 95  1  0
 36 96  1  0
 36 97  1  0
 37 98  1  0
 38 99  1  0
 40100  1  0
 41101  1  0
 41102  1  0
 42103  1  0
 45104  1  0
M  END
