
     RDKit          2D

114119  0  0  0  0  0  0  0  0999 V2000
    9.7823  -15.5336  -21.5612 C   0  0  0  0  0  0  0  0  0  0  0  0
   10.6369  -15.5016  -22.7935 C   0  0  0  0  0  0  0  0  0  0  0  0
   10.4887  -16.5690  -23.8369 C   0  0  0  0  0  0  0  0  0  0  0  0
   10.3405  -17.6365  -24.8803 C   0  0  0  0  0  0  0  0  0  0  0  0
   11.5035  -17.4099  -23.1207 C   0  0  0  0  0  0  0  0  0  0  0  0
   11.2596  -16.1060  -22.4207 C   0  0  0  0  0  0  0  0  0  0  0  0
   11.4418  -15.0692  -21.3520 C   0  0  0  0  0  0  0  0  0  0  0  0
   12.0187  -14.4792  -20.0995 C   0  0  0  0  0  0  0  0  0  0  0  0
   12.8905  -14.4376  -18.8795 C   0  0  0  0  0  0  0  0  0  0  0  0
   13.9064  -14.9520  -17.9032 C   0  0  0  0  0  0  0  0  0  0  0  0
   14.1931  -14.0127  -16.7693 C   0  0  0  0  0  0  0  0  0  0  0  0
   15.1776  -14.9940  -16.2054 C   0  0  0  0  0  0  0  0  0  0  0  0
   14.8909  -15.9333  -17.3392 C   0  0  0  0  0  0  0  0  0  0  0  0
   15.6737  -17.2117  -17.2852 C   0  0  0  0  0  0  0  0  0  0  0  0
   16.1193  -18.5663  -17.7505 C   0  0  0  0  0  0  0  0  0  0  0  0
   16.1509  -19.7628  -18.6545 C   0  0  0  0  0  0  0  0  0  0  0  0
   17.1600  -20.6405  -17.9752 C   0  0  0  0  0  0  0  0  0  0  0  0
   15.3672  -20.0235  -19.9279 C   0  0  0  0  0  0  0  0  0  0  0  0
   14.7704  -20.2837  -20.9465 C   0  0  0  0  0  0  0  0  0  0  0  0
   13.9927  -20.0888  -21.8513 C   0  0  0  0  0  0  0  0  0  0  0  0
   13.0348  -19.9110  -23.0150 C   0  0  0  0  0  0  0  0  0  0  0  0
   12.1315  -18.7559  -23.3309 C   0  0  0  0  0  0  0  0  0  0  0  0
   13.7177  -21.2408  -23.1376 C   0  0  0  0  0  0  0  0  0  0  0  0
   12.8491  -21.2902  -24.3595 Cl  0  0  0  0  0  0  0  0  0  0  0  0
   14.7326  -22.0818  -22.4214 C   0  0  0  0  0  0  0  0  0  0  0  0
   15.6043  -22.0404  -21.2015 C   0  0  0  0  0  0  0  0  0  0  0  0
   16.5782  -23.0538  -20.6774 C   0  0  0  0  0  0  0  0  0  0  0  0
   17.5520  -24.0671  -20.1534 C   0  0  0  0  0  0  0  0  0  0  0  0
   18.5259  -25.0805  -19.6294 C   0  0  0  0  0  0  0  0  0  0  0  0
   19.4998  -26.0940  -19.1054 N   0  0  0  0  0  0  0  0  0  0  0  0
   20.2835  -25.8066  -17.8591 C   0  0  0  0  0  0  0  0  0  0  0  0
   19.6087  -24.4720  -17.7425 C   0  0  0  0  0  0  0  0  0  0  0  0
   20.9584  -27.1410  -17.9757 C   0  0  0  0  0  0  0  0  0  0  0  0
   21.6333  -28.4756  -18.0924 C   0  0  0  0  0  0  0  0  0  0  0  0
   21.7501  -26.8491  -16.7355 O   0  0  0  0  0  0  0  0  0  0  0  0
   22.7304  -27.8588  -16.2164 C   0  0  0  0  0  0  0  0  0  0  0  0
   23.7107  -28.8685  -15.6973 C   0  0  0  0  0  0  0  0  0  0  0  0
   17.2519  -24.9595  -21.3211 C   0  0  0  0  0  0  0  0  0  0  0  0
   18.5776  -25.6383  -21.1432 C   0  0  0  0  0  0  0  0  0  0  0  0
   18.2774  -26.5306  -22.3110 C   0  0  0  0  0  0  0  0  0  0  0  0
   17.3546  -26.9640  -23.4113 C   0  0  0  0  0  0  0  0  0  0  0  0
   18.1771  -28.0575  -24.0256 F   0  0  0  0  0  0  0  0  0  0  0  0
   16.9517  -25.8518  -22.4889 C   0  0  0  0  0  0  0  0  0  0  0  0
   16.8991  -22.1493  -19.5246 C   0  0  0  0  0  0  0  0  0  0  0  0
   15.9252  -21.1359  -20.0486 C   0  0  0  0  0  0  0  0  0  0  0  0
    9.9305  -14.4662  -20.5178 H   0  0  0  0  0  0  0  0  0  0  0  0
    8.7795  -16.6330  -21.3722 H   0  0  0  0  0  0  0  0  0  0  0  0
   11.1015  -14.8578  -22.7220 H   0  0  0  0  0  0  0  0  0  0  0  0
    9.4739  -15.7281  -24.5531 H   0  0  0  0  0  0  0  0  0  0  0  0
   10.1924  -18.7039  -25.9236 H   0  0  0  0  0  0  0  0  0  0  0  0
    9.3002  -16.8108  -25.5772 H   0  0  0  0  0  0  0  0  0  0  0  0
   11.3142  -18.6959  -24.4565 H   0  0  0  0  0  0  0  0  0  0  0  0
   10.9872  -18.0840  -24.3572 H   0  0  0  0  0  0  0  0  0  0  0  0
   10.4654  -14.8357  -22.4967 H   0  0  0  0  0  0  0  0  0  0  0  0
   10.3073  -15.9109  -23.5631 H   0  0  0  0  0  0  0  0  0  0  0  0
   10.7723  -13.7347  -21.2075 H   0  0  0  0  0  0  0  0  0  0  0  0
   10.4200  -14.4898  -22.2848 H   0  0  0  0  0  0  0  0  0  0  0  0
   11.7229  -13.1570  -19.4557 H   0  0  0  0  0  0  0  0  0  0  0  0
   11.0506  -13.4501  -20.6032 H   0  0  0  0  0  0  0  0  0  0  0  0
   13.0196  -13.3565  -17.8479 H   0  0  0  0  0  0  0  0  0  0  0  0
   12.1435  -13.1370  -18.8672 H   0  0  0  0  0  0  0  0  0  0  0  0
   14.9306  -15.5740  -17.0009 H   0  0  0  0  0  0  0  0  0  0  0  0
   14.4799  -13.0735  -15.6355 H   0  0  0  0  0  0  0  0  0  0  0  0
   13.2509  -12.9244  -17.1909 H   0  0  0  0  0  0  0  0  0  0  0  0
   16.2022  -15.7188  -15.3838 H   0  0  0  0  0  0  0  0  0  0  0  0
   15.4643  -14.0547  -15.0716 H   0  0  0  0  0  0  0  0  0  0  0  0
   15.8727  -16.2446  -16.2488 H   0  0  0  0  0  0  0  0  0  0  0  0
   16.6809  -17.6595  -16.2680 H   0  0  0  0  0  0  0  0  0  0  0  0
   16.2206  -16.5793  -16.0399 H   0  0  0  0  0  0  0  0  0  0  0  0
   17.1175  -19.4969  -17.1279 H   0  0  0  0  0  0  0  0  0  0  0  0
   16.8960  -18.3129  -16.4924 H   0  0  0  0  0  0  0  0  0  0  0  0
   18.1690  -21.5181  -17.2958 H   0  0  0  0  0  0  0  0  0  0  0  0
   17.4637  -19.7185  -16.8316 H   0  0  0  0  0  0  0  0  0  0  0  0
   17.4729  -21.9678  -18.5998 H   0  0  0  0  0  0  0  0  0  0  0  0
   16.2563  -21.9524  -20.2440 H   0  0  0  0  0  0  0  0  0  0  0  0
   16.7810  -21.1305  -18.8790 H   0  0  0  0  0  0  0  0  0  0  0  0
   15.2315  -22.2072  -21.8413 H   0  0  0  0  0  0  0  0  0  0  0  0
   15.7443  -22.2308  -21.1615 H   0  0  0  0  0  0  0  0  0  0  0  0
   13.8401  -21.6810  -23.3194 H   0  0  0  0  0  0  0  0  0  0  0  0
   13.0835  -19.6621  -22.7516 H   0  0  0  0  0  0  0  0  0  0  0  0
   12.6302  -20.7236  -24.2091 H   0  0  0  0  0  0  0  0  0  0  0  0
   11.2414  -18.7500  -24.5382 H   0  0  0  0  0  0  0  0  0  0  0  0
   12.0201  -19.8513  -24.3495 H   0  0  0  0  0  0  0  0  0  0  0  0
   13.7433  -22.4335  -24.0468 H   0  0  0  0  0  0  0  0  0  0  0  0
   14.4174  -22.9922  -23.5711 H   0  0  0  0  0  0  0  0  0  0  0  0
   15.4110  -23.4133  -22.5513 H   0  0  0  0  0  0  0  0  0  0  0  0
   15.6001  -23.2137  -22.1359 H   0  0  0  0  0  0  0  0  0  0  0  0
   16.2573  -23.9582  -21.8302 H   0  0  0  0  0  0  0  0  0  0  0  0
   17.9687  -23.3051  -18.9305 H   0  0  0  0  0  0  0  0  0  0  0  0
   18.7469  -24.0472  -18.5648 H   0  0  0  0  0  0  0  0  0  0  0  0
   18.4295  -26.2153  -20.6057 H   0  0  0  0  0  0  0  0  0  0  0  0
   19.6899  -27.3948  -19.8276 H   0  0  0  0  0  0  0  0  0  0  0  0
   21.0672  -25.5191  -16.6129 H   0  0  0  0  0  0  0  0  0  0  0  0
   18.9337  -23.1375  -17.6259 H   0  0  0  0  0  0  0  0  0  0  0  0
   20.3961  -24.1824  -16.4991 H   0  0  0  0  0  0  0  0  0  0  0  0
   18.5964  -24.1010  -18.7855 H   0  0  0  0  0  0  0  0  0  0  0  0
   20.2549  -27.5935  -19.2208 H   0  0  0  0  0  0  0  0  0  0  0  0
   22.3082  -29.8101  -18.2089 H   0  0  0  0  0  0  0  0  0  0  0  0
   22.6207  -28.6776  -16.9814 H   0  0  0  0  0  0  0  0  0  0  0  0
   20.8348  -28.7715  -19.3271 H   0  0  0  0  0  0  0  0  0  0  0  0
   23.0754  -28.4756  -17.5395 H   0  0  0  0  0  0  0  0  0  0  0  0
   22.5031  -27.3613  -14.8197 H   0  0  0  0  0  0  0  0  0  0  0  0
   24.6910  -29.8782  -15.1781 H   0  0  0  0  0  0  0  0  0  0  0  0
   23.3632  -29.7882  -16.8302 H   0  0  0  0  0  0  0  0  0  0  0  0
   24.0581  -27.9487  -14.5644 H   0  0  0  0  0  0  0  0  0  0  0  0
   15.8929  -24.5167  -21.7763 H   0  0  0  0  0  0  0  0  0  0  0  0
   19.8568  -26.4208  -21.1091 H   0  0  0  0  0  0  0  0  0  0  0  0
   19.0372  -24.8354  -19.9625 H   0  0  0  0  0  0  0  0  0  0  0  0
   19.4803  -27.4173  -22.4414 H   0  0  0  0  0  0  0  0  0  0  0  0
   16.1460  -27.0176  -24.2982 H   0  0  0  0  0  0  0  0  0  0  0  0
   15.5934  -25.4270  -22.9630 H   0  0  0  0  0  0  0  0  0  0  0  0
   17.7206  -21.9898  -18.2797 H   0  0  0  0  0  0  0  0  0  0  0  0
   17.9048  -23.0449  -18.8639 H   0  0  0  0  0  0  0  0  0  0  0  0
   16.6276  -20.7444  -18.7823 H   0  0  0  0  0  0  0  0  0  0  0  0
  1  2  2  3
  2  3  1  0
  3  4  1  0
  3  5  1  0
  5  6  1  0
  6  7  1  0
  7  8  1  0
  8  9  1  0
  9 10  1  0
 10 11  1  0
 11 12  1  0
 12 13  1  0
 13 14  1  0
 14 15  1  0
 15 16  1  0
 16 17  1  0
 16 18  1  0
 18 19  1  0
 19 20  1  0
 20 21  1  0
 21 22  1  0
 21 23  1  0
 23 24  1  0
 23 25  1  0
 25 26  1  0
 26 27  1  0
 27 28  1  0
 28 29  1  0
 29 30  1  0
 30 31  1  0
 31 32  1  0
 31 33  1  0
 33 34  1  0
 33 35  1  0
 35 36  1  0
 36 37  1  0
 28 38  1  0
 38 39  1  0
 39 40  1  0
 40 41  1  0
 41 42  1  0
 41 43  1  0
 27 44  1  0
 44 45  1  0
 22  5  1  0
 45 26  1  0
 13 10  1  0
 45 16  1  0
 43 38  1  0
 43 40  1  0
  1 46  1  0
  1 47  1  0
  2 48  1  0
  3 49  1  0
  4 50  1  0
  4 51  1  0
  4 52  1  0
  5 53  1  0
  6 54  1  0
  6 55  1  0
  7 56  1  0
  7 57  1  0
  8 58  1  0
  8 59  1  0
  9 60  1  0
  9 61  1  0
 10 62  1  0
 11 63  1  0
 11 64  1  0
 12 65  1  0
 12 66  1  0
 13 67  1  0
 14 68  1  0
 14 69  1  0
 15 70  1  0
 15 71  1  0
 17 72  1  0
 17 73  1  0
 17 74  1  0
 18 75  1  0
 18 76  1  0
 19 77  1  0
 19 78  1  0
 20 79  1  0
 20 80  1  0
 21 81  1  0
 22 82  1  0
 22 83  1  0
 23 84  1  0
 25 85  1  0
 25 86  1  0
 26 87  1  0
 27 88  1  0
 28 89  1  0
 29 90  1  0
 29 91  1  0
 30 92  1  0
 31 93  1  0
 32 94  1  0
 32 95  1  0
 32 96  1  0
 33 97  1  0
 34 98  1  0
 34 99  1  0
 34100  1  0
 36101  1  0
 36102  1  0
 37103  1  0
 37104  1  0
 37105  1  0
 38106  1  0
 39107  1  0
 39108  1  0
 40109  1  0
 41110  1  0
 43111  1  0
 44112  1  0
 44113  1  0
 45114  1  0
M  END
