
     RDKit          2D

 52 56  0  0  0  0  0  0  0  0999 V2000
   15.0806  -22.7961   -4.6429 C   0  0  0  0  0  0  0  0  0  0  0  0
   15.3682  -22.2134   -5.9949 C   0  0  0  0  0  0  0  0  0  0  0  0
   15.6558  -21.6307   -7.3467 C   0  0  0  0  0  0  0  0  0  0  0  0
   16.4050  -20.7166   -6.4231 C   0  0  0  0  0  0  0  0  0  0  0  0
   17.2365  -19.5164   -6.7665 O   0  0  0  0  0  0  0  0  0  0  0  0
   17.5242  -18.9336   -8.1184 C   0  0  0  0  0  0  0  0  0  0  0  0
   17.0514  -19.4073   -9.4608 C   0  0  0  0  0  0  0  0  0  0  0  0
   17.5721  -18.5350  -10.5643 C   0  0  0  0  0  0  0  0  0  0  0  0
   18.0929  -17.6626  -11.6679 C   0  0  0  0  0  0  0  0  0  0  0  0
   18.1877  -17.3327  -13.1281 O   0  0  0  0  0  0  0  0  0  0  0  0
   17.3104  -18.5061  -13.4502 C   0  0  0  0  0  0  0  0  0  0  0  0
   17.5364  -18.3399  -12.3655 C   0  0  0  0  0  0  0  0  0  0  0  0
   17.1208  -19.1658  -10.5297 C   0  0  0  0  0  0  0  0  0  0  0  0
   16.3137  -20.3469  -10.0786 C   0  0  0  0  0  0  0  0  0  0  0  0
   16.2189  -20.6768   -8.6183 C   0  0  0  0  0  0  0  0  0  0  0  0
   16.1241  -21.0067   -7.1581 C   0  0  0  0  0  0  0  0  0  0  0  0
   16.0292  -21.3366   -5.6980 O   0  0  0  0  0  0  0  0  0  0  0  0
   17.2156  -18.8360  -11.9899 C   0  0  0  0  0  0  0  0  0  0  0  0
   16.3384  -20.0093  -12.3120 N   0  0  0  0  0  0  0  0  0  0  0  0
   15.8177  -20.8817  -11.2084 C   0  0  0  0  0  0  0  0  0  0  0  0
   16.1742  -20.5806   -9.7828 C   0  0  0  0  0  0  0  0  0  0  0  0
   15.5531  -21.5702   -8.8420 C   0  0  0  0  0  0  0  0  0  0  0  0
   15.0803  -22.0439  -10.1845 C   0  0  0  0  0  0  0  0  0  0  0  0
   14.7216  -22.7704   -8.4986 C   0  0  0  0  0  0  0  0  0  0  0  0
   14.0502  -23.5541   -9.5873 C   0  0  0  0  0  0  0  0  0  0  0  0
   14.7929  -23.3788   -3.2910 H   0  0  0  0  0  0  0  0  0  0  0  0
   14.7786  -22.8041   -7.6689 H   0  0  0  0  0  0  0  0  0  0  0  0
   16.9651  -20.1096   -5.1710 H   0  0  0  0  0  0  0  0  0  0  0  0
   15.9541  -21.5045   -5.2289 H   0  0  0  0  0  0  0  0  0  0  0  0
   18.2784  -17.8013   -8.7501 H   0  0  0  0  0  0  0  0  0  0  0  0
   18.2734  -18.0196   -7.1947 H   0  0  0  0  0  0  0  0  0  0  0  0
   16.5638  -19.9034  -10.7898 H   0  0  0  0  0  0  0  0  0  0  0  0
   18.3892  -17.4979   -9.8524 H   0  0  0  0  0  0  0  0  0  0  0  0
   16.7572  -19.1025  -14.7104 H   0  0  0  0  0  0  0  0  0  0  0  0
   16.3415  -20.0543  -11.9491 H   0  0  0  0  0  0  0  0  0  0  0  0
   17.8331  -18.3146   -9.5208 H   0  0  0  0  0  0  0  0  0  0  0  0
   15.5432  -21.2982  -10.9455 H   0  0  0  0  0  0  0  0  0  0  0  0
   15.3437  -21.8944   -8.5774 H   0  0  0  0  0  0  0  0  0  0  0  0
   17.0481  -19.6189   -7.9526 H   0  0  0  0  0  0  0  0  0  0  0  0
   16.9514  -19.9474   -6.4923 H   0  0  0  0  0  0  0  0  0  0  0  0
   15.2719  -22.2209   -6.9354 H   0  0  0  0  0  0  0  0  0  0  0  0
   16.6727  -20.5981   -4.5620 H   0  0  0  0  0  0  0  0  0  0  0  0
   15.9819  -20.3103  -13.7376 H   0  0  0  0  0  0  0  0  0  0  0  0
   14.9876  -22.0810  -10.8579 H   0  0  0  0  0  0  0  0  0  0  0  0
   15.2067  -21.5684  -12.3938 H   0  0  0  0  0  0  0  0  0  0  0  0
   16.1275  -20.8458   -8.3072 H   0  0  0  0  0  0  0  0  0  0  0  0
   14.7018  -22.3771  -11.5971 H   0  0  0  0  0  0  0  0  0  0  0  0
   14.2431  -23.2481   -9.8702 H   0  0  0  0  0  0  0  0  0  0  0  0
   15.6063  -21.1652  -11.2806 H   0  0  0  0  0  0  0  0  0  0  0  0
   14.4569  -23.3237   -7.1297 H   0  0  0  0  0  0  0  0  0  0  0  0
   13.2188  -24.7544   -9.2439 H   0  0  0  0  0  0  0  0  0  0  0  0
   14.1034  -23.2802  -11.0611 H   0  0  0  0  0  0  0  0  0  0  0  0
  1  2  3  0
  2  3  1  0
  3  4  1  0
  4  5  1  0
  5  6  1  0
  6  7  1  0
  7  8  1  0
  8  9  1  0
  9 10  1  6
 10 11  1  0
 11 12  1  0
 12 13  1  0
 13 14  2  3
 14 15  1  0
 15 16  1  0
 16 17  1  0
 11 18  1  0
 18 19  1  1
 19 20  1  0
 20 21  1  0
 21 22  1  0
 22 23  1  1
 22 24  1  0
 24 25  2  3
 22  3  1  0
 21  7  1  0
 18  8  1  0
 12  9  1  0
 18  9  1  0
  1 26  1  0
  3 27  1  6
  4 28  1  0
  4 29  1  0
  6 30  1  0
  6 31  1  0
  7 32  1  1
  8 33  1  1
 11 34  1  1
 12 35  1  6
 13 36  1  0
 14 37  1  0
 15 38  1  0
 15 39  1  0
 16 40  1  0
 16 41  1  0
 17 42  1  0
 19 43  1  0
 20 44  1  0
 20 45  1  0
 21 46  1  1
 23 47  1  0
 23 48  1  0
 23 49  1  0
 24 50  1  0
 25 51  1  0
 25 52  1  0
M  END
