
     RDKit          2D

 26 27  0  0  0  0  0  0  0  0999 V2000
   15.9095  -20.9054   -6.5106 O   0  0  0  0  0  0  0  0  0  0  0  0
   15.7306  -19.4741   -6.0993 C   0  0  0  0  0  0  0  0  0  0  0  0
   16.8493  -19.0714   -7.0139 C   0  0  0  0  0  0  0  0  0  0  0  0
   17.9679  -18.6687   -7.9285 C   0  0  0  0  0  0  0  0  0  0  0  0
   19.0865  -18.2660   -8.8431 C   0  0  0  0  0  0  0  0  0  0  0  0
   20.2052  -18.3784   -9.8360 C   0  0  0  0  0  0  0  0  0  0  0  0
   19.4751  -19.6091   -9.3864 C   0  0  0  0  0  0  0  0  0  0  0  0
   14.6119  -19.8768   -5.1846 C   0  0  0  0  0  0  0  0  0  0  0  0
   13.4933  -19.7644   -4.1917 C   0  0  0  0  0  0  0  0  0  0  0  0
   14.2234  -18.5337   -4.6414 C   0  0  0  0  0  0  0  0  0  0  0  0
   15.1238  -22.0884   -6.0278 H   0  0  0  0  0  0  0  0  0  0  0  0
   15.6935  -18.1513   -5.8322 H   0  0  0  0  0  0  0  0  0  0  0  0
   17.0472  -20.5063   -7.4035 H   0  0  0  0  0  0  0  0  0  0  0  0
   16.6512  -17.6365   -6.6242 H   0  0  0  0  0  0  0  0  0  0  0  0
   18.0222  -19.9947   -8.1759 H   0  0  0  0  0  0  0  0  0  0  0  0
   17.7696  -17.2338   -7.5391 H   0  0  0  0  0  0  0  0  0  0  0  0
   19.0865  -16.7832   -8.6175 H   0  0  0  0  0  0  0  0  0  0  0  0
   20.5936  -16.9344   -9.9553 H   0  0  0  0  0  0  0  0  0  0  0  0
   21.1889  -18.9922  -10.7876 H   0  0  0  0  0  0  0  0  0  0  0  0
   20.2053  -20.6503  -10.1817 H   0  0  0  0  0  0  0  0  0  0  0  0
   18.6587  -20.5183   -8.8125 H   0  0  0  0  0  0  0  0  0  0  0  0
   14.4736  -21.3666   -5.2906 H   0  0  0  0  0  0  0  0  0  0  0  0
   13.1049  -21.2084   -4.0725 H   0  0  0  0  0  0  0  0  0  0  0  0
   12.5095  -19.1506   -3.2401 H   0  0  0  0  0  0  0  0  0  0  0  0
   13.4932  -17.4925   -3.8460 H   0  0  0  0  0  0  0  0  0  0  0  0
   15.0398  -17.6245   -5.2153 H   0  0  0  0  0  0  0  0  0  0  0  0
  1  2  1  0
  2  3  1  0
  3  4  1  0
  4  5  1  0
  5  6  1  0
  6  7  1  0
  2  8  1  0
  8  9  1  0
  9 10  1  0
  7  5  1  0
 10  8  1  0
  1 11  1  0
  2 12  1  0
  3 13  1  0
  3 14  1  0
  4 15  1  0
  4 16  1  0
  5 17  1  0
  6 18  1  0
  6 19  1  0
  7 20  1  0
  7 21  1  0
  8 22  1  0
  9 23  1  0
  9 24  1  0
 10 25  1  0
 10 26  1  0
M  END
