
     RDKit          2D

 29 30  0  0  0  0  0  0  0  0999 V2000
    2.0128   23.4898    8.7478 C   0  0  0  0  0  0  0  0  0  0  0  0
    0.9582   24.2968    8.0503 C   0  0  0  0  0  0  0  0  0  0  0  0
   -0.0965   25.1038    7.3529 C   0  0  0  0  0  0  0  0  0  0  0  0
    0.9271   23.2931    6.9360 C   0  0  0  0  0  0  0  0  0  0  0  0
    2.2555   22.8711    7.4901 O   0  0  0  0  0  0  0  0  0  0  0  0
    2.7692   21.7387    6.6512 C   0  0  0  0  0  0  0  0  0  0  0  0
    1.7581   21.4608    5.5785 C   0  0  0  0  0  0  0  0  0  0  0  0
    0.6196   22.4215    5.7546 C   0  0  0  0  0  0  0  0  0  0  0  0
   -0.6381   23.2355    5.6804 C   0  0  0  0  0  0  0  0  0  0  0  0
   -1.9709   23.7300    5.2017 C   0  0  0  0  0  0  0  0  0  0  0  0
   -1.2912   22.5980    4.4900 C   0  0  0  0  0  0  0  0  0  0  0  0
    3.0675   22.6828    9.4452 H   0  0  0  0  0  0  0  0  0  0  0  0
    1.5816   24.0643   10.0646 H   0  0  0  0  0  0  0  0  0  0  0  0
    2.3708   23.0898    8.1584 H   0  0  0  0  0  0  0  0  0  0  0  0
    0.9893   25.3005    9.1646 H   0  0  0  0  0  0  0  0  0  0  0  0
   -1.1512   25.9108    6.6554 H   0  0  0  0  0  0  0  0  0  0  0  0
    0.1284   26.3842    8.1010 H   0  0  0  0  0  0  0  0  0  0  0  0
    0.3856   26.1875    8.2711 H   0  0  0  0  0  0  0  0  0  0  0  0
   -0.3643   24.0351    6.7580 H   0  0  0  0  0  0  0  0  0  0  0  0
    3.5273   20.6153    6.0083 H   0  0  0  0  0  0  0  0  0  0  0  0
    3.9387   21.7817    7.5894 H   0  0  0  0  0  0  0  0  0  0  0  0
    0.9497   20.9602    4.4184 H   0  0  0  0  0  0  0  0  0  0  0  0
    2.7276   20.3955    5.1600 H   0  0  0  0  0  0  0  0  0  0  0  0
    0.2003   21.6165    4.5603 H   0  0  0  0  0  0  0  0  0  0  0  0
   -0.5838   24.2298    6.8022 H   0  0  0  0  0  0  0  0  0  0  0  0
   -2.2176   24.8219    6.2002 H   0  0  0  0  0  0  0  0  0  0  0  0
   -3.2180   23.8452    4.3763 H   0  0  0  0  0  0  0  0  0  0  0  0
   -2.3022   22.3202    3.4173 H   0  0  0  0  0  0  0  0  0  0  0  0
   -0.3709   21.5137    4.0132 H   0  0  0  0  0  0  0  0  0  0  0  0
  1  2  1  0
  2  3  1  0
  2  4  1  0
  4  5  1  0
  5  6  1  0
  6  7  1  0
  7  8  1  0
  8  9  1  0
  9 10  1  0
 10 11  1  0
  8  4  1  0
 11  9  1  0
  1 12  1  0
  1 13  1  0
  1 14  1  0
  2 15  1  0
  3 16  1  0
  3 17  1  0
  3 18  1  0
  4 19  1  0
  6 20  1  0
  6 21  1  0
  7 22  1  0
  7 23  1  0
  8 24  1  0
  9 25  1  0
 10 26  1  0
 10 27  1  0
 11 28  1  0
 11 29  1  0
M  END
