
     RDKit          2D

 28 27  0  0  0  0  0  0  0  0999 V2000
    1.0772   20.3296   -1.3497 C   0  0  0  0  0  0  0  0  0  0  0  0
    0.3017   20.6252   -0.1003 C   0  0  0  0  0  0  0  0  0  0  0  0
    0.6092   19.8832    1.1666 C   0  0  0  0  0  0  0  0  0  0  0  0
    0.9167   19.1412    2.4334 N   0  0  0  0  0  0  0  0  0  0  0  0
      -nan      -nan      -nan C   0  0  0  0  0  0  0  0  0  0  0  0
      -nan      -nan      -nan C   0  0  0  0  0  0  0  0  0  0  0  0
      -nan      -nan      -nan C   0  0  0  0  0  0  0  0  0  0  0  0
      -nan      -nan      -nan C   0  0  0  0  0  0  0  0  0  0  0  0
      -nan      -nan      -nan C   0  0  0  0  0  0  0  0  0  0  0  0
      -nan      -nan      -nan N   0  0  0  0  0  0  0  0  0  0  0  0
    0.7697   21.0716   -2.6165 H   0  0  0  0  0  0  0  0  0  0  0  0
    2.1602   19.2919   -1.3324 H   0  0  0  0  0  0  0  0  0  0  0  0
   -0.4648   20.6518    1.8775 H   0  0  0  0  0  0  0  0  0  0  0  0
    1.6833   19.1145    0.4556 H   0  0  0  0  0  0  0  0  0  0  0  0
    1.9997   18.1035    2.4507 H   0  0  0  0  0  0  0  0  0  0  0  0
    0.1412   19.4368    3.6829 H   0  0  0  0  0  0  0  0  0  0  0  0
      -nan      -nan      -nan H   0  0  0  0  0  0  0  0  0  0  0  0
      -nan      -nan      -nan H   0  0  0  0  0  0  0  0  0  0  0  0
      -nan      -nan      -nan H   0  0  0  0  0  0  0  0  0  0  0  0
      -nan      -nan      -nan H   0  0  0  0  0  0  0  0  0  0  0  0
      -nan      -nan      -nan H   0  0  0  0  0  0  0  0  0  0  0  0
      -nan      -nan      -nan H   0  0  0  0  0  0  0  0  0  0  0  0
      -nan      -nan      -nan H   0  0  0  0  0  0  0  0  0  0  0  0
      -nan      -nan      -nan H   0  0  0  0  0  0  0  0  0  0  0  0
      -nan      -nan      -nan H   0  0  0  0  0  0  0  0  0  0  0  0
      -nan      -nan      -nan H   0  0  0  0  0  0  0  0  0  0  0  0
      -nan      -nan      -nan H   0  0  0  0  0  0  0  0  0  0  0  0
      -nan      -nan      -nan H   0  0  0  0  0  0  0  0  0  0  0  0
  1  2  2  3
  2  3  1  0
  3  4  1  0
  2  5  1  0
  5  6  1  0
  6  7  1  0
  7  8  1  0
  7  9  1  0
  9 10  1  0
  1 11  1  0
  1 12  1  0
  3 13  1  0
  3 14  1  0
  4 15  1  0
  4 16  1  0
  5 17  1  0
  5 18  1  0
  6 19  1  0
  6 20  1  0
  7 21  1  0
  8 22  1  0
  8 23  1  0
  8 24  1  0
  9 25  1  0
  9 26  1  0
 10 27  1  0
 10 28  1  0
M  END
