
     RDKit          2D

102108  0  0  0  0  0  0  0  0999 V2000
    0.8660   24.0131   -1.4348 C   0  0  0  0  0  0  0  0  0  0  0  0
    0.6720   24.3436    0.0154 C   0  0  0  0  0  0  0  0  0  0  0  0
    1.5918   23.7608    1.0470 C   0  0  0  0  0  0  0  0  0  0  0  0
    2.5116   23.1779    2.0787 C   0  0  0  0  0  0  0  0  0  0  0  0
    3.5746   24.2359    2.1073 N   0  0  0  0  0  0  0  0  0  0  0  0
    4.7526   24.0906    3.0245 C   0  0  0  0  0  0  0  0  0  0  0  0
    5.9306   23.9454    3.9418 C   0  0  0  0  0  0  0  0  0  0  0  0
    7.1085   23.8002    4.8590 C   0  0  0  0  0  0  0  0  0  0  0  0
    3.4596   25.4389    1.2189 C   0  0  0  0  0  0  0  0  0  0  0  0
    3.3446   26.6420    0.3304 N   0  0  0  0  0  0  0  0  0  0  0  0
    2.6374   27.8709    0.8199 C   0  0  0  0  0  0  0  0  0  0  0  0
    1.9303   29.0999    1.3093 C   0  0  0  0  0  0  0  0  0  0  0  0
    1.2232   30.3289    1.7989 C   0  0  0  0  0  0  0  0  0  0  0  0
    0.8292   29.8730    3.1725 C   0  0  0  0  0  0  0  0  0  0  0  0
    0.1636   30.1423    4.4896 Se  0  0  0  0  0  2  0  0  0  0  0  0
   -0.2010   31.5207    4.0234 C   0  0  0  0  0  0  0  0  0  0  0  0
   -0.5656   32.8990    3.5572 C   0  0  0  0  0  0  0  0  0  0  0  0
    0.4645   31.2513    2.7063 C   0  0  0  0  0  0  0  0  0  0  0  0
    2.7036   26.1610    2.2945 N   0  0  0  0  0  0  0  0  0  0  0  0
    2.1065   26.1848    3.6703 C   0  0  0  0  0  0  0  0  0  0  0  0
    1.9914   27.3879    2.7819 C   0  0  0  0  0  0  0  0  0  0  0  0
    1.2354   28.1100    3.8575 C   0  0  0  0  0  0  0  0  0  0  0  0
    1.3505   26.9069    4.7461 C   0  0  0  0  0  0  0  0  0  0  0  0
    1.4655   25.7039    5.6345 C   0  0  0  0  0  0  0  0  0  0  0  0
    0.5945   27.6290    5.8217 C   0  0  0  0  0  0  0  0  0  0  0  0
   -0.1614   28.3511    6.8974 C   0  0  0  0  0  0  0  0  0  0  0  0
   -0.9174   29.0732    7.9730 C   0  0  0  0  0  0  0  0  0  0  0  0
   -1.6734   29.7953    9.0487 C   0  0  0  0  0  0  0  0  0  0  0  0
   -2.4293   30.5172   10.1246 C   0  0  0  0  0  0  0  0  0  0  0  0
   -1.5596   28.5915    9.9366 C   0  0  0  0  0  0  0  0  0  0  0  0
    1.7680   21.9175    2.4082 C   0  0  0  0  0  0  0  0  0  0  0  0
    3.0623   22.2276    3.1003 C   0  0  0  0  0  0  0  0  0  0  0  0
    3.1772   21.0245    3.9887 C   0  0  0  0  0  0  0  0  0  0  0  0
    4.4715   21.3346    4.6808 C   0  0  0  0  0  0  0  0  0  0  0  0
    5.0220   20.3843    5.7025 C   0  0  0  0  0  0  0  0  0  0  0  0
    6.2763   21.1122    6.0859 C   0  0  0  0  0  0  0  0  0  0  0  0
    7.1960   20.5293    7.1176 C   0  0  0  0  0  0  0  0  0  0  0  0
    3.7278   20.0742    5.0104 C   0  0  0  0  0  0  0  0  0  0  0  0
    2.9842   18.8139    5.3399 C   0  0  0  0  0  0  0  0  0  0  0  0
    3.3661   18.0122    6.5489 C   0  0  0  0  0  0  0  0  0  0  0  0
    2.6225   16.7518    6.8785 C   0  0  0  0  0  0  0  0  0  0  0  0
    3.0903   15.4384    6.3251 C   0  0  0  0  0  0  0  0  0  0  0  0
    1.4111   16.8049    7.7616 Mg  0  0  0  0  0  2  0  0  0  0  0  0
   -0.0538   24.5959   -2.4665 H   0  0  0  0  0  0  0  0  0  0  0  0
    1.5579   23.4300   -1.8220 H   0  0  0  0  0  0  0  0  0  0  0  0
   -0.4419   25.2570    0.4340 H   0  0  0  0  0  0  0  0  0  0  0  0
    2.0620   24.4937    0.8850 H   0  0  0  0  0  0  0  0  0  0  0  0
    0.5713   22.6617    1.0700 H   0  0  0  0  0  0  0  0  0  0  0  0
    4.3941   24.6321    4.0515 H   0  0  0  0  0  0  0  0  0  0  0  0
    5.6405   23.3532    2.0665 H   0  0  0  0  0  0  0  0  0  0  0  0
    6.9458   23.6227    2.8858 H   0  0  0  0  0  0  0  0  0  0  0  0
    4.9153   24.2681    4.9977 H   0  0  0  0  0  0  0  0  0  0  0  0
    8.2864   23.6550    5.7762 H   0  0  0  0  0  0  0  0  0  0  0  0
    7.7094   23.0985    3.6772 H   0  0  0  0  0  0  0  0  0  0  0  0
    6.8180   24.2386    5.6909 H   0  0  0  0  0  0  0  0  0  0  0  0
    3.8944   25.1023    0.5245 H   0  0  0  0  0  0  0  0  0  0  0  0
    3.6922   26.7374   -0.5854 H   0  0  0  0  0  0  0  0  0  0  0  0
    2.9120   28.5502   -0.4890 H   0  0  0  0  0  0  0  0  0  0  0  0
    2.1999   27.5093    2.2083 H   0  0  0  0  0  0  0  0  0  0  0  0
    1.7429   28.2754    2.5483 H   0  0  0  0  0  0  0  0  0  0  0  0
    2.2060   29.7797    0.0010 H   0  0  0  0  0  0  0  0  0  0  0  0
    1.3717   31.2116    0.5952 H   0  0  0  0  0  0  0  0  0  0  0  0
    1.1222   28.5305    3.7739 H   0  0  0  0  0  0  0  0  0  0  0  0
   -0.8665   31.7899    5.3405 H   0  0  0  0  0  0  0  0  0  0  0  0
   -0.9303   34.2773    3.0912 H   0  0  0  0  0  0  0  0  0  0  0  0
   -1.2329   33.1676    4.8736 H   0  0  0  0  0  0  0  0  0  0  0  0
    0.0522   32.8004    2.1940 H   0  0  0  0  0  0  0  0  0  0  0  0
    0.3757   32.4284    1.7808 H   0  0  0  0  0  0  0  0  0  0  0  0
    2.4963   24.7989    4.0911 H   0  0  0  0  0  0  0  0  0  0  0  0
    2.0759   28.3630    1.6453 H   0  0  0  0  0  0  0  0  0  0  0  0
    0.4711   28.9733    4.8169 H   0  0  0  0  0  0  0  0  0  0  0  0
    0.9409   29.4521    3.2558 H   0  0  0  0  0  0  0  0  0  0  0  0
    1.3953   24.7117    6.7573 H   0  0  0  0  0  0  0  0  0  0  0  0
    0.7337   26.2758    6.8123 H   0  0  0  0  0  0  0  0  0  0  0  0
    2.1668   25.2925    4.3739 H   0  0  0  0  0  0  0  0  0  0  0  0
    0.6162   26.5228    6.8346 H   0  0  0  0  0  0  0  0  0  0  0  0
    0.3885   28.9113    5.0711 H   0  0  0  0  0  0  0  0  0  0  0  0
   -0.0531   27.1453    7.7830 H   0  0  0  0  0  0  0  0  0  0  0  0
   -0.2698   29.5569    6.0117 H   0  0  0  0  0  0  0  0  0  0  0  0
   -0.8078   27.8680    8.8592 H   0  0  0  0  0  0  0  0  0  0  0  0
   -0.9341   30.1815    6.9624 H   0  0  0  0  0  0  0  0  0  0  0  0
   -1.7871   30.9989    8.1610 H   0  0  0  0  0  0  0  0  0  0  0  0
   -3.1853   31.2391   11.2004 H   0  0  0  0  0  0  0  0  0  0  0  0
   -2.2112   29.3603   11.0542 H   0  0  0  0  0  0  0  0  0  0  0  0
   -2.7380   31.7535    9.3331 H   0  0  0  0  0  0  0  0  0  0  0  0
   -1.4459   27.3877   10.8243 H   0  0  0  0  0  0  0  0  0  0  0  0
   -2.2926   29.1628   11.1140 H   0  0  0  0  0  0  0  0  0  0  0  0
   -0.7989   27.7268    8.9755 H   0  0  0  0  0  0  0  0  0  0  0  0
    0.5320   21.9025    1.5584 H   0  0  0  0  0  0  0  0  0  0  0  0
    1.2831   20.6063    2.9519 H   0  0  0  0  0  0  0  0  0  0  0  0
    4.3483   22.8168    3.5991 H   0  0  0  0  0  0  0  0  0  0  0  0
    1.9735   20.1688    3.7263 H   0  0  0  0  0  0  0  0  0  0  0  0
    5.3393   22.5405    4.4743 H   0  0  0  0  0  0  0  0  0  0  0  0
    5.1370   19.1812    6.5909 H   0  0  0  0  0  0  0  0  0  0  0  0
    6.4553   22.4030    5.3431 H   0  0  0  0  0  0  0  0  0  0  0  0
    8.4503   21.2572    7.5011 H   0  0  0  0  0  0  0  0  0  0  0  0
    6.8617   19.2185    7.7657 H   0  0  0  0  0  0  0  0  0  0  0  0
    1.8589   18.3553    4.4607 H   0  0  0  0  0  0  0  0  0  0  0  0
    4.4914   18.4708    7.4282 H   0  0  0  0  0  0  0  0  0  0  0  0
    3.5581   14.1252    5.7717 H   0  0  0  0  0  0  0  0  0  0  0  0
    4.0568   15.3028    7.4642 H   0  0  0  0  0  0  0  0  0  0  0  0
    2.1238   15.5741    5.1861 H   0  0  0  0  0  0  0  0  0  0  0  0
  1  2  2  3
  2  3  1  0
  3  4  1  0
  4  5  1  6
  5  6  1  0
  6  7  1  0
  7  8  1  0
  5  9  1  0
  9 10  1  0
 10 11  1  0
 11 12  1  0
 12 13  1  0
 13 14  1  0
 14 15  1  0
 15 16  1  0
 16 17  1  0
 16 18  1  0
  9 19  1  0
 19 20  1  0
 20 21  1  0
 21 22  1  0
 22 23  1  0
 23 24  1  1
 23 25  1  0
 25 26  1  0
 26 27  1  0
 27 28  1  0
 28 29  1  0
 28 30  1  0
  4 31  1  0
 31 32  1  0
 32 33  1  0
 33 34  1  0
 34 35  1  0
 35 36  1  0
 36 37  2  3
 35 38  1  0
 38 39  1  1
 39 40  2  3
 40 41  1  0
 41 42  1  0
 41 43  2  0
 32  4  1  0
 38 33  1  0
 18 13  1  0
 21 19  1  0
 38 34  1  0
 18 14  1  0
 23 20  1  0
  1 44  1  0
  1 45  1  0
  2 46  1  0
  3 47  1  0
  3 48  1  0
  6 49  1  0
  6 50  1  0
  7 51  1  0
  7 52  1  0
  8 53  1  0
  8 54  1  0
  8 55  1  0
  9 56  1  1
 10 57  1  0
 11 58  1  0
 11 59  1  0
 12 60  1  0
 12 61  1  0
 13 62  1  6
 14 63  1  6
 16 64  1  6
 17 65  1  0
 17 66  1  0
 17 67  1  0
 18 68  1  6
 20 69  1  6
 21 70  1  6
 22 71  1  0
 22 72  1  0
 24 73  1  0
 24 74  1  0
 24 75  1  0
 25 76  1  0
 25 77  1  0
 26 78  1  0
 26 79  1  0
 27 80  1  0
 27 81  1  0
 28 82  1  0
 29 83  1  0
 29 84  1  0
 29 85  1  0
 30 86  1  0
 30 87  1  0
 30 88  1  0
 31 89  1  0
 31 90  1  0
 32 91  1  1
 33 92  1  1
 34 93  1  1
 35 94  1  1
 36 95  1  0
 37 96  1  0
 37 97  1  0
 39 98  1  0
 40 99  1  0
 42100  1  0
 42101  1  0
 42102  1  0
M  END
