
     RDKit          2D

 61 63  0  0  0  0  0  0  0  0999 V2000
   -0.1132   19.7041    6.7405 C   0  0  0  0  0  0  0  0  0  0  0  0
    1.1219   19.8393    7.5808 C   0  0  0  0  0  0  0  0  0  0  0  0
    2.0701   20.9770    7.3428 C   0  0  0  0  0  0  0  0  0  0  0  0
    2.7710   20.2863    8.4750 C   0  0  0  0  0  0  0  0  0  0  0  0
    4.0622   20.8359    9.0047 C   0  0  0  0  0  0  0  0  0  0  0  0
    4.6526   22.0762    8.4022 C   0  0  0  0  0  0  0  0  0  0  0  0
    3.9518   22.7669    7.2700 C   0  0  0  0  0  0  0  0  0  0  0  0
    2.6606   22.2173    6.7403 C   0  0  0  0  0  0  0  0  0  0  0  0
    2.8220   23.4107    5.8461 C   0  0  0  0  0  0  0  0  0  0  0  0
    2.9835   24.6041    4.9518 C   0  0  0  0  0  0  0  0  0  0  0  0
    3.1450   25.7974    4.0575 C   0  0  0  0  0  0  0  0  0  0  0  0
    4.0295   26.9673    3.7428 C   0  0  0  0  0  0  0  0  0  0  0  0
    4.1910   28.1606    2.8485 C   0  0  0  0  0  0  0  0  0  0  0  0
    3.5677   28.9218    1.7161 C   0  0  0  0  0  0  0  0  0  0  0  0
    2.3977   28.9599    0.7782 C   0  0  0  0  0  0  0  0  0  0  0  0
    1.1279   28.2604    0.3930 C   0  0  0  0  0  0  0  0  0  0  0  0
    0.2433   27.0905    0.7077 C   0  0  0  0  0  0  0  0  0  0  0  0
    0.0819   25.8971    1.6020 C   0  0  0  0  0  0  0  0  0  0  0  0
    0.7052   25.1360    2.7344 C   0  0  0  0  0  0  0  0  0  0  0  0
    0.4105   23.9129    3.5510 C   0  0  0  0  0  0  0  0  0  0  0  0
   -0.5323   24.3330    2.4626 C   0  0  0  0  0  0  0  0  0  0  0  0
   -1.2520   25.0055    1.3313 Cl  0  0  0  0  0  0  0  0  0  0  0  0
    1.8752   25.0979    3.6723 C   0  0  0  0  0  0  0  0  0  0  0  0
    0.9906   23.9281    3.9869 C   0  0  0  0  0  0  0  0  0  0  0  0
   -1.0614   18.5664    6.9785 H   0  0  0  0  0  0  0  0  0  0  0  0
   -0.4002   20.7066    5.6623 H   0  0  0  0  0  0  0  0  0  0  0  0
    1.2080   19.1277    8.2552 H   0  0  0  0  0  0  0  0  0  0  0  0
    1.0400   21.2725    6.2933 H   0  0  0  0  0  0  0  0  0  0  0  0
    2.0350   19.6329    8.4636 H   0  0  0  0  0  0  0  0  0  0  0  0
    3.0579   19.2838    9.5533 H   0  0  0  0  0  0  0  0  0  0  0  0
    3.9007   19.6426    9.8990 H   0  0  0  0  0  0  0  0  0  0  0  0
    5.2974   20.9711    9.8450 H   0  0  0  0  0  0  0  0  0  0  0  0
    5.6828   21.7807    9.4517 H   0  0  0  0  0  0  0  0  0  0  0  0
    5.6008   23.2140    8.1642 H   0  0  0  0  0  0  0  0  0  0  0  0
    5.1434   23.6647    7.4253 H   0  0  0  0  0  0  0  0  0  0  0  0
    3.8821   23.3434    6.7238 H   0  0  0  0  0  0  0  0  0  0  0  0
    1.4254   22.0821    5.9000 H   0  0  0  0  0  0  0  0  0  0  0  0
    1.3240   23.3487    5.7996 H   0  0  0  0  0  0  0  0  0  0  0  0
    3.6181   23.4436    5.8708 H   0  0  0  0  0  0  0  0  0  0  0  0
    4.2834   24.9322    5.6244 H   0  0  0  0  0  0  0  0  0  0  0  0
    1.6735   24.1328    4.3932 H   0  0  0  0  0  0  0  0  0  0  0  0
    4.2392   25.6082    5.0659 H   0  0  0  0  0  0  0  0  0  0  0  0
    5.3194   27.5363    4.2550 H   0  0  0  0  0  0  0  0  0  0  0  0
    4.7862   26.3317    4.8712 H   0  0  0  0  0  0  0  0  0  0  0  0
    5.1839   29.2706    2.6689 H   0  0  0  0  0  0  0  0  0  0  0  0
    5.4193   28.2743    3.7020 H   0  0  0  0  0  0  0  0  0  0  0  0
    3.7292   30.1152    0.8219 H   0  0  0  0  0  0  0  0  0  0  0  0
    4.7984   29.7413    1.9686 H   0  0  0  0  0  0  0  0  0  0  0  0
    2.5592   30.1532   -0.1161 H   0  0  0  0  0  0  0  0  0  0  0  0
    0.5046   29.0214   -0.7393 H   0  0  0  0  0  0  0  0  0  0  0  0
   -1.0466   26.5215    0.1955 H   0  0  0  0  0  0  0  0  0  0  0  0
   -0.3799   27.8516   -0.4247 H   0  0  0  0  0  0  0  0  0  0  0  0
   -1.0818   24.9556    1.5056 H   0  0  0  0  0  0  0  0  0  0  0  0
   -1.1464   25.7835    0.7485 H   0  0  0  0  0  0  0  0  0  0  0  0
    1.2210   23.3339    4.6727 H   0  0  0  0  0  0  0  0  0  0  0  0
   -0.4235   22.7226    3.9222 H   0  0  0  0  0  0  0  0  0  0  0  0
   -1.5671   23.2539    2.5835 H   0  0  0  0  0  0  0  0  0  0  0  0
    2.2059   24.1217    4.7620 H   0  0  0  0  0  0  0  0  0  0  0  0
    1.9334   23.5080    5.0753 H   0  0  0  0  0  0  0  0  0  0  0  0
   -0.1382   24.0527    3.0069 H   0  0  0  0  0  0  0  0  0  0  0  0
    0.2276   22.7158    4.4318 H   0  0  0  0  0  0  0  0  0  0  0  0
  1  2  2  0
  2  3  1  0
  3  4  1  0
  4  5  1  0
  5  6  1  0
  6  7  1  0
  7  8  1  0
  8  9  1  0
  9 10  1  0
 10 11  1  0
 11 12  1  0
 12 13  1  0
 13 14  1  0
 14 15  1  0
 15 16  2  0
 16 17  1  0
 17 18  1  0
 18 19  1  0
 19 20  1  0
 20 21  1  0
 21 22  1  0
 19 23  1  0
 23 24  1  0
  8  3  1  0
 23 11  1  0
 21 19  1  0
  1 25  1  0
  1 26  1  0
  2 27  1  0
  3 28  1  0
  4 29  1  0
  4 30  1  0
  5 31  1  0
  5 32  1  0
  6 33  1  0
  6 34  1  0
  7 35  1  0
  7 36  1  0
  8 37  1  0
  9 38  1  0
  9 39  1  0
 10 40  1  0
 10 41  1  0
 11 42  1  0
 12 43  1  0
 12 44  1  0
 13 45  1  0
 13 46  1  0
 14 47  1  0
 14 48  1  0
 15 49  1  0
 16 50  1  0
 17 51  1  0
 17 52  1  0
 18 53  1  0
 18 54  1  0
 20 55  1  0
 20 56  1  0
 21 57  1  0
 23 58  1  0
 24 59  1  0
 24 60  1  0
 24 61  1  0
M  END
