
     RDKit          2D

 71 78  0  0  0  0  0  0  0  0999 V2000
   -3.2690   28.3043    9.6302 C   0  0  0  0  0  0  0  0  0  0  0  0
   -2.6812   28.4031   11.0067 C   0  0  0  0  0  0  0  0  0  0  0  0
   -1.2024   28.2473   11.2036 C   0  0  0  0  0  0  0  0  0  0  0  0
   -1.2219   28.4339   12.6918 C   0  0  0  0  0  0  0  0  0  0  0  0
   -0.9313   28.5798   14.1561 C   0  0  0  0  0  0  0  0  0  0  0  0
    0.1883   28.3239   13.1912 C   0  0  0  0  0  0  0  0  0  0  0  0
   -1.1693   28.4575   12.9337 C   0  0  0  0  0  0  0  0  0  0  0  0
   -2.5476   28.6228   12.9123 C   0  0  0  0  0  0  0  0  0  0  0  0
   -3.9159   28.7142   12.3043 C   0  0  0  0  0  0  0  0  0  0  0  0
   -3.7797   28.5143   10.8239 C   0  0  0  0  0  0  0  0  0  0  0  0
   -5.2686   28.6954   10.8213 C   0  0  0  0  0  0  0  0  0  0  0  0
   -2.2959   28.2534   10.1769 C   0  0  0  0  0  0  0  0  0  0  0  0
   -2.9893   28.4997   11.4840 C   0  0  0  0  0  0  0  0  0  0  0  0
   -0.8737   28.0281    9.7565 C   0  0  0  0  0  0  0  0  0  0  0  0
   -1.3154   27.9051    8.3283 C   0  0  0  0  0  0  0  0  0  0  0  0
   -1.7570   27.7820    6.9001 C   0  0  0  0  0  0  0  0  0  0  0  0
   -2.1986   27.6590    5.4718 C   0  0  0  0  0  0  0  0  0  0  0  0
   -2.6402   27.5360    4.0436 C   0  0  0  0  0  0  0  0  0  0  0  0
   -3.3678   27.4625    2.7340 C   0  0  0  0  0  0  0  0  0  0  0  0
   -2.3570   27.2059    1.6559 C   0  0  0  0  0  0  0  0  0  0  0  0
   -1.0047   27.1207    2.2991 C   0  0  0  0  0  0  0  0  0  0  0  0
   -1.1797   27.3248    3.7748 C   0  0  0  0  0  0  0  0  0  0  0  0
    0.2728   27.1911    4.1249 C   0  0  0  0  0  0  0  0  0  0  0  0
   -0.7381   27.4478    5.2031 C   0  0  0  0  0  0  0  0  0  0  0  0
    0.1633   27.4863    6.4014 C   0  0  0  0  0  0  0  0  0  0  0  0
    1.0647   27.5248    7.5997 C   0  0  0  0  0  0  0  0  0  0  0  0
    0.2198   28.0219   10.7832 C   0  0  0  0  0  0  0  0  0  0  0  0
    1.7027   27.8271   10.6690 C   0  0  0  0  0  0  0  0  0  0  0  0
    1.0792   28.0693   12.0117 C   0  0  0  0  0  0  0  0  0  0  0  0
   -4.6616   28.4061    9.0820 H   0  0  0  0  0  0  0  0  0  0  0  0
   -2.5302   28.0556    8.3487 H   0  0  0  0  0  0  0  0  0  0  0  0
   -3.4201   28.6518   12.2881 H   0  0  0  0  0  0  0  0  0  0  0  0
   -2.6936   28.5825   12.4434 H   0  0  0  0  0  0  0  0  0  0  0  0
   -2.2431   28.8245   14.8413 H   0  0  0  0  0  0  0  0  0  0  0  0
   -0.3197   28.6745   15.5225 H   0  0  0  0  0  0  0  0  0  0  0  0
   -2.3663   28.8059   14.5698 H   0  0  0  0  0  0  0  0  0  0  0  0
   -0.2875   28.5801   14.7917 H   0  0  0  0  0  0  0  0  0  0  0  0
   -3.5679   28.8795   13.9814 H   0  0  0  0  0  0  0  0  0  0  0  0
   -4.5275   28.9557   13.6525 H   0  0  0  0  0  0  0  0  0  0  0  0
   -5.4009   28.8788   12.1720 H   0  0  0  0  0  0  0  0  0  0  0  0
   -4.6286   28.4648    9.5883 H   0  0  0  0  0  0  0  0  0  0  0  0
   -6.7577   28.8766   10.8186 H   0  0  0  0  0  0  0  0  0  0  0  0
   -5.4689   28.5425    9.3426 H   0  0  0  0  0  0  0  0  0  0  0  0
   -5.4315   28.8926   12.2994 H   0  0  0  0  0  0  0  0  0  0  0  0
   -2.9428   28.1650    8.8265 H   0  0  0  0  0  0  0  0  0  0  0  0
   -4.2949   28.5678   10.7486 H   0  0  0  0  0  0  0  0  0  0  0  0
   -4.3361   28.7400   12.0990 H   0  0  0  0  0  0  0  0  0  0  0  0
    0.1610   27.8482    8.0687 H   0  0  0  0  0  0  0  0  0  0  0  0
   -2.8128   27.9455    8.4066 H   0  0  0  0  0  0  0  0  0  0  0  0
   -0.2694   27.6002    6.8369 H   0  0  0  0  0  0  0  0  0  0  0  0
   -3.1800   28.0001    7.3212 H   0  0  0  0  0  0  0  0  0  0  0  0
   -3.6191   27.8978    5.8905 H   0  0  0  0  0  0  0  0  0  0  0  0
   -0.7135   27.4571    5.4112 H   0  0  0  0  0  0  0  0  0  0  0  0
   -4.0084   27.7730    4.6109 H   0  0  0  0  0  0  0  0  0  0  0  0
   -4.5839   27.7148    3.5750 H   0  0  0  0  0  0  0  0  0  0  0  0
   -4.3498   27.4418    1.6002 H   0  0  0  0  0  0  0  0  0  0  0  0
   -3.5503   27.2388    0.7475 H   0  0  0  0  0  0  0  0  0  0  0  0
   -1.5957   26.9561    0.3878 H   0  0  0  0  0  0  0  0  0  0  0  0
   -0.5261   26.8888    0.8966 H   0  0  0  0  0  0  0  0  0  0  0  0
    0.4770   26.9614    2.4702 H   0  0  0  0  0  0  0  0  0  0  0  0
    1.0116   26.9424    2.8435 H   0  0  0  0  0  0  0  0  0  0  0  0
    1.6140   27.1102    4.7916 H   0  0  0  0  0  0  0  0  0  0  0  0
   -1.8576   27.7037    6.1681 H   0  0  0  0  0  0  0  0  0  0  0  0
    1.4502   27.2428    5.6702 H   0  0  0  0  0  0  0  0  0  0  0  0
   -1.0225   27.7364    7.2854 H   0  0  0  0  0  0  0  0  0  0  0  0
    2.1038   27.5322    8.6815 H   0  0  0  0  0  0  0  0  0  0  0  0
    2.2501   27.2710    6.7163 H   0  0  0  0  0  0  0  0  0  0  0  0
   -0.0020   27.7815    8.6227 H   0  0  0  0  0  0  0  0  0  0  0  0
    2.0060   27.6103    9.2161 H   0  0  0  0  0  0  0  0  0  0  0  0
    3.1428   27.7012   11.0694 H   0  0  0  0  0  0  0  0  0  0  0  0
    2.3590   28.0100   12.7918 H   0  0  0  0  0  0  0  0  0  0  0  0
  1  2  2  3
  2  3  1  0
  3  4  1  0
  4  5  1  0
  5  6  1  0
  6  7  1  0
  7  8  1  0
  8  9  1  0
  9 10  1  0
 10 11  1  0
 10 12  1  0
 12 13  1  0
 12 14  1  0
 14 15  1  0
 15 16  1  0
 16 17  1  0
 17 18  1  0
 18 19  1  0
 19 20  1  0
 20 21  1  0
 21 22  1  0
 22 23  1  0
 23 24  1  0
 24 25  1  0
 25 26  1  0
 14 27  1  0
 27 28  1  0
 28 29  1  0
 14  3  1  0
 22 18  1  0
 29 27  1  0
 27  3  1  0
  6  4  1  0
 13  8  1  0
 24 22  1  0
 29  6  1  0
  1 30  1  0
  1 31  1  0
  2 32  1  0
  4 33  1  0
  5 34  1  0
  5 35  1  0
  7 36  1  0
  7 37  1  0
  8 38  1  0
  9 39  1  0
  9 40  1  0
 10 41  1  0
 11 42  1  0
 11 43  1  0
 11 44  1  0
 12 45  1  0
 13 46  1  0
 13 47  1  0
 15 48  1  0
 15 49  1  0
 16 50  1  0
 16 51  1  0
 17 52  1  0
 17 53  1  0
 18 54  1  0
 19 55  1  0
 19 56  1  0
 20 57  1  0
 20 58  1  0
 21 59  1  0
 21 60  1  0
 23 61  1  0
 23 62  1  0
 24 63  1  0
 25 64  1  0
 25 65  1  0
 26 66  1  0
 26 67  1  0
 26 68  1  0
 28 69  1  0
 28 70  1  0
 29 71  1  0
M  END
