
     RDKit          2D

 32 32  0  0  0  0  0  0  0  0999 V2000
   -4.2468   26.3599    9.5436 C   0  0  0  0  0  0  0  0  0  0  0  0
   -3.0261   26.2094    8.6850 C   0  0  0  0  0  0  0  0  0  0  0  0
   -2.4144   27.4140    8.0332 C   0  0  0  0  0  0  0  0  0  0  0  0
   -1.1937   27.2634    7.1746 C   0  0  0  0  0  0  0  0  0  0  0  0
   -1.3383   27.0078    5.7036 C   0  0  0  0  0  0  0  0  0  0  0  0
   -0.1176   26.8572    4.8450 C   0  0  0  0  0  0  0  0  0  0  0  0
    1.1031   26.7066    3.9864 C   0  0  0  0  0  0  0  0  0  0  0  0
    2.3238   26.5561    3.1278 B   0  0  0  0  0  0  0  0  0  0  0  0
    2.9355   27.7606    2.4760 O   0  0  0  0  0  0  0  0  0  0  0  0
    2.9327   25.2009    2.9210 C   0  0  0  0  0  0  0  0  0  0  0  0
    1.9966   24.3663    3.7438 O   0  0  0  0  0  0  0  0  0  0  0  0
    2.2069   22.8848    3.8478 O   0  0  0  0  0  0  0  0  0  0  0  0
    4.0804   25.5648    2.0263 C   0  0  0  0  0  0  0  0  0  0  0  0
    3.8668   24.1356    2.4284 C   0  0  0  0  0  0  0  0  0  0  0  0
    3.2551   22.9311    3.0802 O   0  0  0  0  0  0  0  0  0  0  0  0
   -5.4674   26.5105   10.4023 H   0  0  0  0  0  0  0  0  0  0  0  0
   -3.3750   26.5680   10.7465 H   0  0  0  0  0  0  0  0  0  0  0  0
   -5.1186   26.1519    8.3409 H   0  0  0  0  0  0  0  0  0  0  0  0
   -2.4171   24.8543    8.4782 H   0  0  0  0  0  0  0  0  0  0  0  0
   -3.0234   28.7690    8.2401 H   0  0  0  0  0  0  0  0  0  0  0  0
    0.1716   27.3684    7.7870 H   0  0  0  0  0  0  0  0  0  0  0  0
   -2.7036   26.9028    5.0913 H   0  0  0  0  0  0  0  0  0  0  0  0
    0.3191   28.2415    5.2231 H   0  0  0  0  0  0  0  0  0  0  0  0
   -0.5544   25.4729    4.4669 H   0  0  0  0  0  0  0  0  0  0  0  0
    1.0662   28.1738    3.6766 H   0  0  0  0  0  0  0  0  0  0  0  0
    1.1400   25.2395    4.2962 H   0  0  0  0  0  0  0  0  0  0  0  0
    4.1562   27.6100    1.6173 H   0  0  0  0  0  0  0  0  0  0  0  0
    3.3534   22.2378    3.1288 H   0  0  0  0  0  0  0  0  0  0  0  0
    5.3011   25.4142    1.1677 H   0  0  0  0  0  0  0  0  0  0  0  0
    3.8700   27.0463    1.9224 H   0  0  0  0  0  0  0  0  0  0  0  0
    5.0133   23.4886    1.7095 H   0  0  0  0  0  0  0  0  0  0  0  0
    3.8640   21.5759    2.8734 H   0  0  0  0  0  0  0  0  0  0  0  0
  1  2  1  0
  2  3  2  3
  3  4  1  0
  4  5  2  3
  5  6  1  0
  6  7  1  0
  7  8  1  0
  8  9  1  0
  8 10  1  0
 10 11  1  6
 11 12  1  0
 10 13  1  0
 13 14  1  0
 14 15  1  0
 14 10  1  0
  1 16  1  0
  1 17  1  0
  1 18  1  0
  2 19  1  0
  3 20  1  0
  4 21  1  0
  5 22  1  0
  6 23  1  0
  6 24  1  0
  7 25  1  0
  7 26  1  0
  9 27  1  0
 12 28  1  0
 13 29  1  0
 13 30  1  0
 14 31  1  1
 15 32  1  0
M  END
