
     RDKit          2D

 22 22  0  0  0  0  0  0  0  0999 V2000
   15.1085  -28.0786   -0.3566 O   0  0  0  0  0  0  0  0  0  0  0  0
   15.0308  -26.7635   -1.0740 O   0  0  0  0  0  0  0  0  0  0  0  0
   15.5955  -26.6291   -2.4571 O   0  0  0  0  0  0  0  0  0  0  0  0
   15.5175  -25.3142   -3.1746 N   0  0  0  0  0  0  0  0  0  0  0  0
   14.3302  -24.9988   -4.0354 P   0  0  0  0  0  0  0  0  0  0  0  0
   14.2522  -23.6838   -4.7529 C   0  0  0  0  0  0  0  0  0  0  0  0
   14.1741  -22.3688   -5.4704 O   0  0  0  0  0  0  0  0  0  0  0  0
   15.2833  -21.3693   -5.3271 O   0  0  0  0  0  0  0  0  0  0  0  0
   15.2053  -20.0543   -6.0445 N   0  0  0  0  0  0  0  0  0  0  0  0
   15.7700  -19.9199   -7.4276 P   0  0  0  0  0  0  0  0  0  0  0  0
   16.4672  -20.5239   -8.6104 C   0  0  0  0  0  0  0  0  0  0  0  0
   16.0510  -19.0831   -8.6404 C   0  0  0  0  0  0  0  0  0  0  0  0
   14.5434  -28.2130    1.0263 H   0  0  0  0  0  0  0  0  0  0  0  0
   16.6267  -24.3146   -3.0312 H   0  0  0  0  0  0  0  0  0  0  0  0
   13.2210  -25.9984   -4.1788 H   0  0  0  0  0  0  0  0  0  0  0  0
   12.9264  -24.0790   -5.3328 H   0  0  0  0  0  0  0  0  0  0  0  0
   15.5779  -23.2888   -4.1730 H   0  0  0  0  0  0  0  0  0  0  0  0
   14.5625  -18.8738   -5.3789 H   0  0  0  0  0  0  0  0  0  0  0  0
   17.0957  -20.6417   -9.9673 H   0  0  0  0  0  0  0  0  0  0  0  0
   16.6652  -21.9237   -8.1093 H   0  0  0  0  0  0  0  0  0  0  0  0
   15.4668  -17.7752   -8.1954 H   0  0  0  0  0  0  0  0  0  0  0  0
   16.5349  -18.7005  -10.0076 H   0  0  0  0  0  0  0  0  0  0  0  0
  1  2  1  0
  2  3  1  0
  3  4  1  0
  4  5  1  0
  5  6  1  0
  6  7  1  0
  7  8  1  0
  8  9  1  0
  9 10  1  0
 10 11  1  0
 11 12  1  0
 12 10  1  0
  1 13  1  0
  4 14  1  0
  5 15  1  0
  6 16  1  0
  6 17  1  0
  9 18  1  0
 11 19  1  0
 11 20  1  0
 12 21  1  0
 12 22  1  0
M  END
