
     RDKit          2D

 44 47  0  0  0  0  0  0  0  0999 V2000
    4.1135   24.8562    7.1025 C   0  0  0  0  0  0  0  0  0  0  0  0
    2.6622   24.9925    6.7493 C   0  0  0  0  0  0  0  0  0  0  0  0
    3.2557   26.2639    6.2187 C   0  0  0  0  0  0  0  0  0  0  0  0
    2.5677   27.3927    5.5099 C   0  0  0  0  0  0  0  0  0  0  0  0
    1.1163   27.5291    5.1567 N   0  0  0  0  0  0  0  0  0  0  0  0
   -0.0056   26.5703    5.4249 C   0  0  0  0  0  0  0  0  0  0  0  0
   -1.4337   26.1139    5.3778 C   0  0  0  0  0  0  0  0  0  0  0  0
   -2.8618   25.6575    5.3306 C   0  0  0  0  0  0  0  0  0  0  0  0
   -3.9047   26.5222    4.6868 C   0  0  0  0  0  0  0  0  0  0  0  0
   -5.3328   26.0659    4.6396 C   0  0  0  0  0  0  0  0  0  0  0  0
   -5.9547   27.2295    3.9260 C   0  0  0  0  0  0  0  0  0  0  0  0
   -6.8417   28.2287    3.2443 C   0  0  0  0  0  0  0  0  0  0  0  0
   -8.2398   27.6853    3.2472 C   0  0  0  0  0  0  0  0  0  0  0  0
   -9.5080   26.8987    3.3993 O   0  0  0  0  0  0  0  0  0  0  0  0
   -8.2169   26.3504    3.9307 C   0  0  0  0  0  0  0  0  0  0  0  0
   -8.7969   25.0749    4.4661 O   0  0  0  0  0  0  0  0  0  0  0  0
   -6.8046   26.0687    4.3503 C   0  0  0  0  0  0  0  0  0  0  0  0
    0.0468   25.2383    6.1127 C   0  0  0  0  0  0  0  0  0  0  0  0
    1.2340   24.5362    6.7021 C   0  0  0  0  0  0  0  0  0  0  0  0
    5.5650   24.7198    7.4558 H   0  0  0  0  0  0  0  0  0  0  0  0
    3.8364   23.5201    7.7255 H   0  0  0  0  0  0  0  0  0  0  0  0
    4.3538   25.5521    6.7969 H   0  0  0  0  0  0  0  0  0  0  0  0
    2.8942   23.6905    7.4570 H   0  0  0  0  0  0  0  0  0  0  0  0
    4.4865   27.1011    6.0336 H   0  0  0  0  0  0  0  0  0  0  0  0
    3.9390   25.9676    6.5030 H   0  0  0  0  0  0  0  0  0  0  0  0
    2.5154   28.7247    4.8221 H   0  0  0  0  0  0  0  0  0  0  0  0
    3.9389   27.9995    5.4694 H   0  0  0  0  0  0  0  0  0  0  0  0
    0.7366   28.7911    4.4404 H   0  0  0  0  0  0  0  0  0  0  0  0
   -0.6936   27.6992    4.7162 H   0  0  0  0  0  0  0  0  0  0  0  0
   -1.2316   24.8073    6.0862 H   0  0  0  0  0  0  0  0  0  0  0  0
   -1.8128   27.3743    4.6582 H   0  0  0  0  0  0  0  0  0  0  0  0
   -3.2471   24.3363    5.9273 H   0  0  0  0  0  0  0  0  0  0  0  0
   -3.5194   27.8435    4.0900 H   0  0  0  0  0  0  0  0  0  0  0  0
   -5.2069   24.7437    5.3368 H   0  0  0  0  0  0  0  0  0  0  0  0
   -4.6866   28.0161    3.7739 H   0  0  0  0  0  0  0  0  0  0  0  0
   -5.5736   29.0153    3.0922 H   0  0  0  0  0  0  0  0  0  0  0  0
   -7.4637   29.3923    2.5307 H   0  0  0  0  0  0  0  0  0  0  0  0
   -8.8618   28.8490    2.5336 H   0  0  0  0  0  0  0  0  0  0  0  0
  -10.2640   24.7986    4.3197 H   0  0  0  0  0  0  0  0  0  0  0  0
   -7.0894   24.7342    4.9734 H   0  0  0  0  0  0  0  0  0  0  0  0
   -0.7073   24.0289    6.5804 H   0  0  0  0  0  0  0  0  0  0  0  0
   -1.4276   25.2109    5.8383 H   0  0  0  0  0  0  0  0  0  0  0  0
    1.7574   23.3273    7.4194 H   0  0  0  0  0  0  0  0  0  0  0  0
    0.2377   23.4700    7.0496 H   0  0  0  0  0  0  0  0  0  0  0  0
  1  2  1  0
  2  3  1  0
  3  4  1  0
  4  5  1  0
  5  6  1  0
  6  7  1  0
  7  8  1  0
  8  9  2  3
  9 10  1  0
 10 11  1  0
 11 12  1  0
 12 13  1  0
 13 14  1  0
 14 15  1  0
 15 16  1  6
 15 17  1  0
  6 18  1  0
 18 19  1  0
 19  2  1  0
 17 10  1  0
 17 11  1  0
 15 13  1  0
  1 20  1  0
  1 21  1  0
  1 22  1  0
  2 23  1  1
  3 24  1  0
  3 25  1  0
  4 26  1  0
  4 27  1  0
  5 28  1  0
  6 29  1  1
  7 30  1  0
  7 31  1  0
  8 32  1  0
  9 33  1  0
 10 34  1  6
 11 35  1  6
 12 36  1  0
 12 37  1  0
 13 38  1  6
 16 39  1  0
 17 40  1  6
 18 41  1  0
 18 42  1  0
 19 43  1  0
 19 44  1  0
M  END
