
     RDKit          2D

 26 28  0  0  0  0  0  0  0  0999 V2000
   20.6368  -20.7212  -12.6975 O   0  0  0  0  0  0  0  0  0  0  0  0
   19.3858  -21.1468  -11.9874 C   0  0  0  0  0  0  0  0  0  0  0  0
   18.1349  -21.5724  -11.2774 C   0  0  0  0  0  0  0  0  0  0  0  0
   18.7401  -21.1648   -9.9668 I   0  0  0  0  0  0  0  0  0  0  0  0
   16.8841  -21.9980  -10.5673 C   0  0  0  0  0  0  0  0  0  0  0  0
   15.6332  -22.4236   -9.8573 C   0  0  0  0  0  0  0  0  0  0  0  0
   16.0113  -22.0944   -8.4436 C   0  0  0  0  0  0  0  0  0  0  0  0
   14.6645  -22.6836   -8.7419 C   0  0  0  0  0  0  0  0  0  0  0  0
   15.0426  -22.3543   -7.3281 C   0  0  0  0  0  0  0  0  0  0  0  0
   15.8551  -21.8773   -6.1611 C   0  0  0  0  0  0  0  0  0  0  0  0
   16.2332  -21.5481   -4.7473 O   0  0  0  0  0  0  0  0  0  0  0  0
   14.8864  -22.1372   -5.0456 C   0  0  0  0  0  0  0  0  0  0  0  0
   14.3167  -22.2002   -3.6595 O   0  0  0  0  0  0  0  0  0  0  0  0
   20.7386  -20.8629  -14.1873 H   0  0  0  0  0  0  0  0  0  0  0  0
   20.1914  -21.4764  -10.7657 H   0  0  0  0  0  0  0  0  0  0  0  0
   18.5802  -20.8173  -13.2090 H   0  0  0  0  0  0  0  0  0  0  0  0
   17.5298  -21.9800  -12.5880 H   0  0  0  0  0  0  0  0  0  0  0  0
   17.4890  -21.5899   -9.2568 H   0  0  0  0  0  0  0  0  0  0  0  0
   16.2791  -22.4061  -11.8779 H   0  0  0  0  0  0  0  0  0  0  0  0
   14.8206  -22.9007  -11.0245 H   0  0  0  0  0  0  0  0  0  0  0  0
   17.3581  -21.5053   -8.1452 H   0  0  0  0  0  0  0  0  0  0  0  0
   13.3177  -23.2727   -9.0403 H   0  0  0  0  0  0  0  0  0  0  0  0
   13.7273  -22.8267   -6.7832 H   0  0  0  0  0  0  0  0  0  0  0  0
   17.1060  -21.4517   -6.8710 H   0  0  0  0  0  0  0  0  0  0  0  0
   13.6508  -22.7203   -5.6648 H   0  0  0  0  0  0  0  0  0  0  0  0
   12.9346  -22.7401   -3.4404 H   0  0  0  0  0  0  0  0  0  0  0  0
  1  2  1  0
  2  3  1  0
  3  4  1  0
  3  5  1  0
  5  6  1  0
  6  7  1  0
  7  8  1  0
  8  9  1  0
  9 10  1  0
 10 11  1  0
 11 12  1  0
 12 13  1  0
  8  6  1  0
 12 10  1  0
  9  7  1  0
  1 14  1  0
  2 15  1  0
  2 16  1  0
  3 17  1  0
  5 18  1  0
  5 19  1  0
  6 20  1  0
  7 21  1  0
  8 22  1  0
  9 23  1  0
 10 24  1  0
 12 25  1  0
 13 26  1  0
M  END
