
     RDKit          2D

 92 98  0  0  0  0  0  0  0  0999 V2000
   20.7114  -21.6680  -19.8138 C   0  0  0  0  0  0  0  0  0  0  0  0
   20.2056  -22.0397  -18.4515 N   0  0  0  0  0  0  0  0  0  0  0  0
   20.0145  -20.9799  -17.4073 C   0  0  0  0  0  0  0  0  0  0  0  0
   19.8234  -19.9200  -16.3632 C   0  0  0  0  0  0  0  0  0  0  0  0
   19.6324  -18.8601  -15.3191 C   0  0  0  0  0  0  0  0  0  0  0  0
   19.4414  -17.8003  -14.2750 C   0  0  0  0  0  0  0  0  0  0  0  0
   19.2503  -16.7404  -13.2309 C   0  0  0  0  0  0  0  0  0  0  0  0
   18.9786  -18.8430  -13.3011 C   0  0  0  0  0  0  0  0  0  0  0  0
   18.5159  -19.8859  -12.3272 C   0  0  0  0  0  0  0  0  0  0  0  0
   18.7544  -20.8309  -13.4674 C   0  0  0  0  0  0  0  0  0  0  0  0
   18.2714  -21.0075  -12.0583 C   0  0  0  0  0  0  0  0  0  0  0  0
   17.8672  -22.2720  -11.3597 C   0  0  0  0  0  0  0  0  0  0  0  0
   18.0236  -20.6856  -11.1576 C   0  0  0  0  0  0  0  0  0  0  0  0
   17.9847  -19.3553  -10.4655 C   0  0  0  0  0  0  0  0  0  0  0  0
   17.5331  -19.2655   -9.0380 C   0  0  0  0  0  0  0  0  0  0  0  0
   18.3976  -18.1149  -11.2010 C   0  0  0  0  0  0  0  0  0  0  0  0
   17.8462  -23.6719  -11.8977 C   0  0  0  0  0  0  0  0  0  0  0  0
   17.5178  -25.0787  -11.4937 C   0  0  0  0  0  0  0  0  0  0  0  0
   17.8958  -25.5602  -12.8632 As  0  0  0  0  0  3  0  0  0  0  0  0
   18.2241  -24.1534  -13.2672 C   0  0  0  0  0  0  0  0  0  0  0  0
   18.7164  -23.3538  -14.4368 C   0  0  0  0  0  0  0  0  0  0  0  0
   18.9525  -21.8751  -14.5260 C   0  0  0  0  0  0  0  0  0  0  0  0
   19.3304  -22.3566  -15.8953 C   0  0  0  0  0  0  0  0  0  0  0  0
   19.7084  -22.8381  -17.2648 C   0  0  0  0  0  0  0  0  0  0  0  0
   20.0863  -23.3195  -18.6342 O   0  0  0  0  0  0  0  0  0  0  0  0
   19.9909  -24.7785  -18.9690 O   0  0  0  0  0  0  0  0  0  0  0  0
   17.7509  -24.7734  -12.0789 C   0  0  0  0  0  0  0  0  0  0  0  0
   17.1399  -24.5972  -10.1243 C   0  0  0  0  0  0  0  0  0  0  0  0
   16.7619  -24.1158   -8.7549 C   0  0  0  0  0  0  0  0  0  0  0  0
   16.2945  -24.1445   -7.3299 O   0  0  0  0  0  0  0  0  0  0  0  0
   16.3729  -25.4176   -8.1192 C   0  0  0  0  0  0  0  0  0  0  0  0
   15.8996  -26.3952   -7.0847 C   0  0  0  0  0  0  0  0  0  0  0  0
   15.4263  -27.3727   -6.0501 C   0  0  0  0  0  0  0  0  0  0  0  0
   15.3309  -28.8318   -6.3850 C   0  0  0  0  0  0  0  0  0  0  0  0
   15.0484  -26.8912   -4.6807 C   0  0  0  0  0  0  0  0  0  0  0  0
   14.5745  -27.8688   -3.6463 C   0  0  0  0  0  0  0  0  0  0  0  0
   14.6704  -26.4098   -3.3112 C   0  0  0  0  0  0  0  0  0  0  0  0
   14.2925  -25.9283   -1.9418 C   0  0  0  0  0  0  0  0  0  0  0  0
   15.1442  -25.4323   -4.3457 O   0  0  0  0  0  0  0  0  0  0  0  0
   20.1850  -19.9185  -18.4535 P   0  0  0  0  0  0  0  0  0  0  0  0
   20.4357  -20.3056  -19.8808 O   0  0  0  0  0  0  0  0  0  0  0  0
   20.9025  -22.7277  -20.8579 H   0  0  0  0  0  0  0  0  0  0  0  0
   20.9255  -20.9808  -20.1565 H   0  0  0  0  0  0  0  0  0  0  0  0
   19.8953  -22.2661  -16.6449 H   0  0  0  0  0  0  0  0  0  0  0  0
   19.3318  -20.8245  -15.2723 H   0  0  0  0  0  0  0  0  0  0  0  0
   20.2686  -18.7571  -17.1995 H   0  0  0  0  0  0  0  0  0  0  0  0
   19.1609  -19.9017  -14.3481 H   0  0  0  0  0  0  0  0  0  0  0  0
   20.1039  -17.8186  -16.2901 H   0  0  0  0  0  0  0  0  0  0  0  0
   19.9041  -16.7574  -15.2489 H   0  0  0  0  0  0  0  0  0  0  0  0
   19.0593  -15.6805  -12.1867 H   0  0  0  0  0  0  0  0  0  0  0  0
   20.3621  -15.9391  -13.8408 H   0  0  0  0  0  0  0  0  0  0  0  0
   18.1235  -17.4065  -12.4982 H   0  0  0  0  0  0  0  0  0  0  0  0
   19.1698  -19.9029  -14.3452 H   0  0  0  0  0  0  0  0  0  0  0  0
   18.7325  -17.9182  -12.1461 H   0  0  0  0  0  0  0  0  0  0  0  0
   18.4946  -18.5333  -11.6792 H   0  0  0  0  0  0  0  0  0  0  0  0
   19.0827  -19.4242  -13.8714 H   0  0  0  0  0  0  0  0  0  0  0  0
   18.4518  -19.5209  -11.9730 H   0  0  0  0  0  0  0  0  0  0  0  0
   17.9841  -20.2000  -10.8273 H   0  0  0  0  0  0  0  0  0  0  0  0
   17.4257  -22.1155   -9.9347 H   0  0  0  0  0  0  0  0  0  0  0  0
   17.5231  -21.2071   -9.8432 H   0  0  0  0  0  0  0  0  0  0  0  0
   17.4943  -17.9352   -8.3459 H   0  0  0  0  0  0  0  0  0  0  0  0
   17.1202  -20.5058   -8.3024 H   0  0  0  0  0  0  0  0  0  0  0  0
   18.8105  -16.8745  -11.9365 H   0  0  0  0  0  0  0  0  0  0  0  0
   18.8354  -17.4938   -9.9077 H   0  0  0  0  0  0  0  0  0  0  0  0
   18.0134  -18.5803  -12.5743 H   0  0  0  0  0  0  0  0  0  0  0  0
   17.2380  -26.5337  -11.2597 H   0  0  0  0  0  0  0  0  0  0  0  0
   17.0716  -24.9520  -10.0672 H   0  0  0  0  0  0  0  0  0  0  0  0
   18.4176  -25.2081  -14.3160 H   0  0  0  0  0  0  0  0  0  0  0  0
   18.7565  -24.6824  -15.1320 H   0  0  0  0  0  0  0  0  0  0  0  0
   19.1798  -23.3585  -15.8635 H   0  0  0  0  0  0  0  0  0  0  0  0
   19.3176  -20.5249  -15.0675 H   0  0  0  0  0  0  0  0  0  0  0  0
   19.5611  -20.9396  -16.3299 H   0  0  0  0  0  0  0  0  0  0  0  0
   19.1476  -23.8218  -15.6310 H   0  0  0  0  0  0  0  0  0  0  0  0
   20.1201  -21.5898  -17.9876 H   0  0  0  0  0  0  0  0  0  0  0  0
   19.3783  -24.2445  -16.8613 H   0  0  0  0  0  0  0  0  0  0  0  0
   20.3689  -25.2600  -20.3385 H   0  0  0  0  0  0  0  0  0  0  0  0
   17.1459  -26.4164  -10.9259 H   0  0  0  0  0  0  0  0  0  0  0  0
   16.8600  -26.0523   -9.8903 H   0  0  0  0  0  0  0  0  0  0  0  0
   17.4682  -23.1905  -10.5282 H   0  0  0  0  0  0  0  0  0  0  0  0
   17.0196  -22.6468   -8.9149 H   0  0  0  0  0  0  0  0  0  0  0  0
   16.5606  -26.4852   -9.1560 H   0  0  0  0  0  0  0  0  0  0  0  0
   16.0619  -27.5154   -8.0689 H   0  0  0  0  0  0  0  0  0  0  0  0
   15.7373  -25.2749   -6.1004 H   0  0  0  0  0  0  0  0  0  0  0  0
   14.8576  -29.8093   -5.3504 H   0  0  0  0  0  0  0  0  0  0  0  0
   15.7088  -29.3133   -7.7544 H   0  0  0  0  0  0  0  0  0  0  0  0
   14.6526  -29.1418   -4.4358 H   0  0  0  0  0  0  0  0  0  0  0  0
   14.0736  -28.4041   -2.3377 H   0  0  0  0  0  0  0  0  0  0  0  0
   13.9145  -25.4469   -0.5724 H   0  0  0  0  0  0  0  0  0  0  0  0
   14.0241  -27.3422   -1.5188 H   0  0  0  0  0  0  0  0  0  0  0  0
   14.5609  -24.5145   -2.3648 H   0  0  0  0  0  0  0  0  0  0  0  0
   20.1350  -18.4333  -18.2493 H   0  0  0  0  0  0  0  0  0  0  0  0
   20.6062  -19.2443  -20.9270 H   0  0  0  0  0  0  0  0  0  0  0  0
  1  2  2  3
  2  3  1  0
  3  4  1  0
  4  5  1  0
  5  6  1  0
  6  7  1  0
  6  8  1  0
  8  9  1  0
  9 10  1  0
 10 11  1  0
 11 12  1  0
 12 13  1  0
 13 14  1  0
 14 15  2  3
 14 16  1  0
 12 17  1  0
 17 18  1  0
 18 19  1  0
 19 20  1  0
 20 21  1  0
 21 22  1  0
 22 23  1  0
 23 24  1  0
 24 25  1  0
 25 26  1  0
 19 27  1  0
 27 28  1  0
 28 29  1  0
 29 30  1  0
 30 31  1  0
 31 32  1  0
 32 33  1  0
 33 34  2  3
 33 35  1  0
 35 36  1  0
 36 37  1  0
 37 38  1  0
 37 39  1  0
  3 40  1  0
 40 41  1  0
 13  9  1  0
 20 17  1  0
 31 29  1  0
 37 35  1  0
 22 10  1  0
 39 35  1  0
 27 17  1  0
  1 42  1  0
  1 43  1  0
  3 44  1  0
  4 45  1  0
  4 46  1  0
  5 47  1  0
  5 48  1  0
  6 49  1  0
  7 50  1  0
  7 51  1  0
  7 52  1  0
  8 53  1  0
  8 54  1  0
  9 55  1  0
 10 56  1  0
 11 57  1  0
 11 58  1  0
 12 59  1  0
 13 60  1  0
 15 61  1  0
 15 62  1  0
 16 63  1  0
 16 64  1  0
 16 65  1  0
 18 66  1  0
 18 67  1  0
 20 68  1  0
 21 69  1  0
 21 70  1  0
 22 71  1  0
 23 72  1  0
 23 73  1  0
 24 74  1  0
 24 75  1  0
 26 76  1  0
 27 77  1  0
 28 78  1  0
 28 79  1  0
 29 80  1  0
 31 81  1  0
 32 82  1  0
 32 83  1  0
 34 84  1  0
 34 85  1  0
 36 86  1  0
 36 87  1  0
 38 88  1  0
 38 89  1  0
 38 90  1  0
 40 91  1  0
 41 92  1  0
M  END
