
     RDKit          2D

 26 26  0  0  0  0  0  0  0  0999 V2000
    2.3369   23.8699   11.3778 C   0  0  0  0  0  0  0  0  0  0  0  0
    1.7015   23.5800   10.0503 O   0  0  0  0  0  0  0  0  0  0  0  0
    1.8994   24.5244    8.9019 O   0  0  0  0  0  0  0  0  0  0  0  0
    1.2639   24.2345    7.5744 C   0  0  0  0  0  0  0  0  0  0  0  0
    0.6684   22.9767    8.1342 C   0  0  0  0  0  0  0  0  0  0  0  0
    1.8594   25.4923    7.0148 C   0  0  0  0  0  0  0  0  0  0  0  0
    2.4549   26.7502    6.4550 C   0  0  0  0  0  0  0  0  0  0  0  0
    3.1839   27.2542    7.6652 C   0  0  0  0  0  0  0  0  0  0  0  0
    3.2317   28.0313    6.3831 C   0  0  0  0  0  0  0  0  0  0  0  0
    2.9794   28.4090    4.9536 C   0  0  0  0  0  0  0  0  0  0  0  0
    2.9723   24.1597   12.7053 H   0  0  0  0  0  0  0  0  0  0  0  0
    1.7446   22.6100   11.9365 H   0  0  0  0  0  0  0  0  0  0  0  0
    2.9292   25.1298   10.8192 H   0  0  0  0  0  0  0  0  0  0  0  0
    0.6284   23.9446    6.2470 H   0  0  0  0  0  0  0  0  0  0  0  0
    0.0729   21.7189    8.6939 H   0  0  0  0  0  0  0  0  0  0  0  0
    0.4229   22.4737    6.7425 H   0  0  0  0  0  0  0  0  0  0  0  0
    0.7625   23.1604    9.6199 H   0  0  0  0  0  0  0  0  0  0  0  0
    2.3610   25.6138    8.2622 H   0  0  0  0  0  0  0  0  0  0  0  0
    1.2247   25.2019    5.6870 H   0  0  0  0  0  0  0  0  0  0  0  0
    1.9120   26.5487    5.2355 H   0  0  0  0  0  0  0  0  0  0  0  0
    4.0317   28.1342    8.5350 H   0  0  0  0  0  0  0  0  0  0  0  0
    2.9659   26.3641    8.6565 H   0  0  0  0  0  0  0  0  0  0  0  0
    4.0962   29.1813    6.8076 H   0  0  0  0  0  0  0  0  0  0  0  0
    2.7271   28.7868    3.5240 H   0  0  0  0  0  0  0  0  0  0  0  0
    3.7976   29.6527    5.1377 H   0  0  0  0  0  0  0  0  0  0  0  0
    2.2208   27.3396    4.6322 H   0  0  0  0  0  0  0  0  0  0  0  0
  1  2  1  0
  2  3  1  0
  3  4  1  0
  4  5  1  0
  4  6  1  0
  6  7  1  0
  7  8  1  0
  8  9  1  0
  9 10  1  0
  9  7  1  0
  1 11  1  0
  1 12  1  0
  1 13  1  0
  4 14  1  0
  5 15  1  0
  5 16  1  0
  5 17  1  0
  6 18  1  0
  6 19  1  0
  7 20  1  0
  8 21  1  0
  8 22  1  0
  9 23  1  0
 10 24  1  0
 10 25  1  0
 10 26  1  0
M  END
