
     RDKit          2D

 80 90  0  0  0  0  0  0  0  0999 V2000
    1.5538   33.4569   -0.0342 C   0  0  0  0  0  0  0  0  0  0  0  0
    1.1470   32.6250    1.1458 C   0  0  0  0  0  0  0  0  0  0  0  0
    0.9667   31.1437    0.9927 C   0  0  0  0  0  0  0  0  0  0  0  0
    0.6503   31.3706    2.4413 C   0  0  0  0  0  0  0  0  0  0  0  0
    0.2520   30.3645    3.4802 C   0  0  0  0  0  0  0  0  0  0  0  0
    0.0717   28.8833    3.3271 C   0  0  0  0  0  0  0  0  0  0  0  0
   -0.2630   28.9998    4.7846 C   0  0  0  0  0  0  0  0  0  0  0  0
   -0.4958   27.5194    4.8495 C   0  0  0  0  0  0  0  0  0  0  0  0
   -0.7286   26.0390    4.9144 C   0  0  0  0  0  0  0  0  0  0  0  0
   -0.9615   24.5586    4.9792 C   0  0  0  0  0  0  0  0  0  0  0  0
   -0.4971   24.8626    6.3727 C   0  0  0  0  0  0  0  0  0  0  0  0
   -0.2032   24.2569    7.7131 C   0  0  0  0  0  0  0  0  0  0  0  0
   -0.1922   22.9729    8.4885 C   0  0  0  0  0  0  0  0  0  0  0  0
    0.1016   22.3672    9.8290 C   0  0  0  0  0  0  0  0  0  0  0  0
    0.3955   21.7615   11.1694 Br  0  0  0  0  0  0  0  0  0  0  0  0
   -0.4682   21.5010    8.4027 C   0  0  0  0  0  0  0  0  0  0  0  0
   -0.9259   20.4035    7.4883 C   0  0  0  0  0  0  0  0  0  0  0  0
   -1.3902   20.0995    6.0949 C   0  0  0  0  0  0  0  0  0  0  0  0
   -1.6841   20.7052    4.7543 C   0  0  0  0  0  0  0  0  0  0  0  0
   -1.6951   21.9892    3.9790 C   0  0  0  0  0  0  0  0  0  0  0  0
   -1.4191   23.4610    4.0649 C   0  0  0  0  0  0  0  0  0  0  0  0
   -1.3291   24.8702    3.5587 C   0  0  0  0  0  0  0  0  0  0  0  0
   -1.5296   18.6506    6.4573 C   0  0  0  0  0  0  0  0  0  0  0  0
   -1.0651   18.9546    7.8509 C   0  0  0  0  0  0  0  0  0  0  0  0
   -1.0795   17.6338    8.5616 C   0  0  0  0  0  0  0  0  0  0  0  0
   -0.6670   17.5524   10.0015 C   0  0  0  0  0  0  0  0  0  0  0  0
   -0.6814   16.2316   10.7123 C   0  0  0  0  0  0  0  0  0  0  0  0
   -0.2401   18.7919   10.7306 C   0  0  0  0  0  0  0  0  0  0  0  0
    0.0604   18.2099   12.0800 C   0  0  0  0  0  0  0  0  0  0  0  0
   -0.6526   18.8732    9.2907 C   0  0  0  0  0  0  0  0  0  0  0  0
   -0.1611   27.4029    3.3919 C   0  0  0  0  0  0  0  0  0  0  0  0
    0.2451   28.0422    2.0973 Si  0  0  0  0  0  4  0  0  0  0  0  0
    0.1806   26.6579    1.5233 C   0  0  0  0  0  0  0  0  0  0  0  0
    0.6417   28.4747    0.7168 C   0  0  0  0  0  0  0  0  0  0  0  0
    0.9628   29.8549    0.2252 C   0  0  0  0  0  0  0  0  0  0  0  0
    1.7342   34.9381    0.1189 H   0  0  0  0  0  0  0  0  0  0  0  0
    1.7803   32.8076   -1.3673 H   0  0  0  0  0  0  0  0  0  0  0  0
    1.0387   33.1016    1.8844 H   0  0  0  0  0  0  0  0  0  0  0  0
    1.3718   31.7461   -0.3199 H   0  0  0  0  0  0  0  0  0  0  0  0
    0.5232   32.3545    3.5663 H   0  0  0  0  0  0  0  0  0  0  0  0
    0.8205   32.2189    2.2521 H   0  0  0  0  0  0  0  0  0  0  0  0
    0.0490   30.2285    4.2390 H   0  0  0  0  0  0  0  0  0  0  0  0
    0.2061   31.5537    4.3932 H   0  0  0  0  0  0  0  0  0  0  0  0
   -0.5976   29.1162    6.2422 H   0  0  0  0  0  0  0  0  0  0  0  0
   -0.1618   29.7882    4.8448 H   0  0  0  0  0  0  0  0  0  0  0  0
   -0.8305   27.6358    6.3071 H   0  0  0  0  0  0  0  0  0  0  0  0
   -0.2767   26.2153    6.3337 H   0  0  0  0  0  0  0  0  0  0  0  0
   -1.1990   25.6847    3.5347 H   0  0  0  0  0  0  0  0  0  0  0  0
   -0.0624   26.0731    7.1446 H   0  0  0  0  0  0  0  0  0  0  0  0
   -0.3336   26.3254    6.0838 H   0  0  0  0  0  0  0  0  0  0  0  0
    0.2747   24.7352    9.0521 H   0  0  0  0  0  0  0  0  0  0  0  0
    0.1193   25.6984    7.9736 H   0  0  0  0  0  0  0  0  0  0  0  0
    0.2815   23.9411    9.5317 H   0  0  0  0  0  0  0  0  0  0  0  0
    0.8779   23.5922   10.2123 H   0  0  0  0  0  0  0  0  0  0  0  0
   -0.6330   21.0775    9.6119 H   0  0  0  0  0  0  0  0  0  0  0  0
   -0.5164   20.1368    9.0244 H   0  0  0  0  0  0  0  0  0  0  0  0
   -0.0513   21.4454    9.8425 H   0  0  0  0  0  0  0  0  0  0  0  0
   -1.4097   19.7814    6.2121 H   0  0  0  0  0  0  0  0  0  0  0  0
   -1.8673   19.1708    5.0178 H   0  0  0  0  0  0  0  0  0  0  0  0
   -2.1417   19.6076    3.8400 H   0  0  0  0  0  0  0  0  0  0  0  0
   -2.1595   21.6852    2.5855 H   0  0  0  0  0  0  0  0  0  0  0  0
   -1.8664   23.3102    2.6411 H   0  0  0  0  0  0  0  0  0  0  0  0
   -1.4893   25.8636    2.4464 H   0  0  0  0  0  0  0  0  0  0  0  0
   -1.9565   17.4112    5.7283 H   0  0  0  0  0  0  0  0  0  0  0  0
   -1.5064   16.3944    7.8326 H   0  0  0  0  0  0  0  0  0  0  0  0
   -0.6957   14.9108   11.4232 H   0  0  0  0  0  0  0  0  0  0  0  0
   -0.1846   16.7312   12.0366 H   0  0  0  0  0  0  0  0  0  0  0  0
   -1.1837   15.5660    9.4655 H   0  0  0  0  0  0  0  0  0  0  0  0
    0.0825   20.2335   10.9910 H   0  0  0  0  0  0  0  0  0  0  0  0
    0.3609   17.6279   13.4294 H   0  0  0  0  0  0  0  0  0  0  0  0
    0.4444   19.5705   12.5814 H   0  0  0  0  0  0  0  0  0  0  0  0
   -0.2840   16.7884   11.7469 H   0  0  0  0  0  0  0  0  0  0  0  0
   -0.2516   25.9867    2.9060 H   0  0  0  0  0  0  0  0  0  0  0  0
    0.1160   25.2735    0.9493 H   0  0  0  0  0  0  0  0  0  0  0  0
    0.7858   26.9842    0.1902 H   0  0  0  0  0  0  0  0  0  0  0  0
   -0.4404   25.9940    2.7165 H   0  0  0  0  0  0  0  0  0  0  0  0
    0.9243   28.0707   -0.6998 H   0  0  0  0  0  0  0  0  0  0  0  0
    0.5073   27.0173    0.3880 H   0  0  0  0  0  0  0  0  0  0  0  0
    1.3687   30.7203   -0.9308 H   0  0  0  0  0  0  0  0  0  0  0  0
    1.1799   29.1693   -1.0912 H   0  0  0  0  0  0  0  0  0  0  0  0
  1  2  2  3
  2  3  1  0
  3  4  1  0
  4  5  1  0
  5  6  1  0
  6  7  1  0
  7  8  1  0
  8  9  1  0
  9 10  1  0
 10 11  1  0
 11 12  1  0
 12 13  1  0
 13 14  1  0
 14 15  1  0
 13 16  1  0
 16 17  1  0
 17 18  1  0
 18 19  1  0
 19 20  1  0
 20 21  1  0
 21 22  1  0
 19 23  1  0
 23 24  1  0
 24 25  1  0
 25 26  1  0
 26 27  1  0
 26 28  1  0
 28 29  1  0
 28 30  1  0
  8 31  1  0
 31 32  1  0
 32 33  1  0
 32 34  1  0
 34 35  1  0
 35  3  1  0
 31  6  1  0
 32  6  1  0
 21 10  1  0
 30 24  1  0
 22 10  1  0
 30 25  1  0
 24 17  1  0
 30 26  1  0
 23 18  1  0
 22 20  1  0
  1 36  1  0
  1 37  1  0
  2 38  1  0
  3 39  1  0
  4 40  1  0
  4 41  1  0
  5 42  1  0
  5 43  1  0
  7 44  1  0
  7 45  1  0
  8 46  1  0
  9 47  1  0
  9 48  1  0
 11 49  1  0
 11 50  1  0
 12 51  1  0
 12 52  1  0
 13 53  1  0
 14 54  1  0
 14 55  1  0
 16 56  1  0
 16 57  1  0
 17 58  1  0
 18 59  1  0
 19 60  1  0
 20 61  1  0
 21 62  1  0
 22 63  1  0
 23 64  1  0
 25 65  1  0
 27 66  1  0
 27 67  1  0
 27 68  1  0
 28 69  1  0
 29 70  1  0
 29 71  1  0
 29 72  1  0
 31 73  1  0
 33 74  1  0
 33 75  1  0
 33 76  1  0
 34 77  1  0
 34 78  1  0
 35 79  1  0
 35 80  1  0
M  END
