
     RDKit          2D

104116  0  0  0  0  0  0  0  0999 V2000
   17.1169  -22.7433  -10.1445 C   0  0  0  0  0  0  0  0  0  0  0  0
   17.9953  -21.8750   -9.2933 C   0  0  0  0  0  0  0  0  0  0  0  0
   17.7060  -21.7220   -7.8293 C   0  0  0  0  0  0  0  0  0  0  0  0
   16.9329  -21.9808   -6.5702 O   0  0  0  0  0  0  0  0  0  0  0  0
   17.1848  -21.4463   -5.1916 C   0  0  0  0  0  0  0  0  0  0  0  0
   18.2720  -20.5210   -4.7314 C   0  0  0  0  0  0  0  0  0  0  0  0
   19.3758  -19.9016   -5.5363 C   0  0  0  0  0  0  0  0  0  0  0  0
   20.5863  -19.0892   -5.8897 C   0  0  0  0  0  0  0  0  0  0  0  0
   20.7034  -18.6428   -4.4624 O   0  0  0  0  0  0  0  0  0  0  0  0
   19.4929  -19.4552   -4.1090 C   0  0  0  0  0  0  0  0  0  0  0  0
   19.3758  -19.9016   -5.5363 C   0  0  0  0  0  0  0  0  0  0  0  0
   18.1654  -20.7139   -5.1829 C   0  0  0  0  0  0  0  0  0  0  0  0
   18.0483  -21.1603   -6.6102 C   0  0  0  0  0  0  0  0  0  0  0  0
   17.9313  -21.6066   -8.0375 C   0  0  0  0  0  0  0  0  0  0  0  0
   16.8379  -21.9727   -6.2568 C   0  0  0  0  0  0  0  0  0  0  0  0
   16.7214  -22.4199   -7.6839 C   0  0  0  0  0  0  0  0  0  0  0  0
   15.5109  -23.2323   -7.3305 C   0  0  0  0  0  0  0  0  0  0  0  0
   15.6274  -22.7850   -5.9035 C   0  0  0  0  0  0  0  0  0  0  0  0
   15.7439  -22.3378   -4.4764 C   0  0  0  0  0  0  0  0  0  0  0  0
   15.8603  -21.8907   -3.0494 C   0  0  0  0  0  0  0  0  0  0  0  0
   19.2588  -20.3479   -6.9636 C   0  0  0  0  0  0  0  0  0  0  0  0
   19.6651  -20.0546   -7.0002 C   0  0  0  0  0  0  0  0  0  0  0  0
   18.9219  -20.8648   -8.0207 C   0  0  0  0  0  0  0  0  0  0  0  0
   20.1272  -20.0696   -8.4271 C   0  0  0  0  0  0  0  0  0  0  0  0
   21.3324  -19.2746   -8.8337 C   0  0  0  0  0  0  0  0  0  0  0  0
   21.3819  -19.6057  -10.2958 C   0  0  0  0  0  0  0  0  0  0  0  0
   21.4314  -19.9368  -11.7580 C   0  0  0  0  0  0  0  0  0  0  0  0
   22.5353  -18.9388  -11.9466 C   0  0  0  0  0  0  0  0  0  0  0  0
   22.5848  -19.2699  -13.4088 C   0  0  0  0  0  0  0  0  0  0  0  0
   21.4809  -20.2679  -13.2201 C   0  0  0  0  0  0  0  0  0  0  0  0
   22.0757  -20.0557  -14.5807 C   0  0  0  0  0  0  0  0  0  0  0  0
   21.2619  -21.0330  -15.3760 C   0  0  0  0  0  0  0  0  0  0  0  0
   22.9531  -19.5040  -15.6650 C   0  0  0  0  0  0  0  0  0  0  0  0
   23.8305  -18.9524  -16.7494 C   0  0  0  0  0  0  0  0  0  0  0  0
   20.8703  -19.2595   -7.4066 C   0  0  0  0  0  0  0  0  0  0  0  0
   19.1628  -21.1598   -9.9058 N   0  0  0  0  0  0  0  0  0  0  0  0
   19.5740  -21.2164  -11.3472 C   0  0  0  0  0  0  0  0  0  0  0  0
   20.7895  -20.3539  -11.5168 C   0  0  0  0  0  0  0  0  0  0  0  0
   21.5342  -20.1218  -12.7979 C   0  0  0  0  0  0  0  0  0  0  0  0
   22.4956  -19.2244  -12.0766 C   0  0  0  0  0  0  0  0  0  0  0  0
   21.7510  -19.4565  -10.7954 C   0  0  0  0  0  0  0  0  0  0  0  0
   21.3398  -19.3999   -9.3539 C   0  0  0  0  0  0  0  0  0  0  0  0
   20.1243  -20.2623   -9.1844 C   0  0  0  0  0  0  0  0  0  0  0  0
   19.7842  -20.8519  -10.5211 C   0  0  0  0  0  0  0  0  0  0  0  0
   18.6586  -21.5016   -9.7722 C   0  0  0  0  0  0  0  0  0  0  0  0
   17.4063  -22.8962  -11.6084 H   0  0  0  0  0  0  0  0  0  0  0  0
   15.9495  -23.4584   -9.5320 H   0  0  0  0  0  0  0  0  0  0  0  0
   16.8864  -22.5664   -8.7595 H   0  0  0  0  0  0  0  0  0  0  0  0
   16.0003  -22.1927   -4.6531 H   0  0  0  0  0  0  0  0  0  0  0  0
   16.8955  -21.2933   -3.7277 H   0  0  0  0  0  0  0  0  0  0  0  0
   17.7490  -20.5567   -3.3260 H   0  0  0  0  0  0  0  0  0  0  0  0
   18.7601  -19.8438   -3.4851 H   0  0  0  0  0  0  0  0  0  0  0  0
   21.7097  -18.4428   -6.6447 H   0  0  0  0  0  0  0  0  0  0  0  0
   18.7198  -19.7140   -2.8499 H   0  0  0  0  0  0  0  0  0  0  0  0
   16.9626  -21.6102   -5.1855 H   0  0  0  0  0  0  0  0  0  0  0  0
   18.2825  -20.2676   -3.7557 H   0  0  0  0  0  0  0  0  0  0  0  0
   17.9622  -21.9502   -9.4973 H   0  0  0  0  0  0  0  0  0  0  0  0
   16.8100  -22.5366   -8.3949 H   0  0  0  0  0  0  0  0  0  0  0  0
   19.1157  -20.8512   -8.5631 H   0  0  0  0  0  0  0  0  0  0  0  0
   16.7214  -22.4199   -7.6839 H   0  0  0  0  0  0  0  0  0  0  0  0
   16.4583  -22.9627   -9.0572 H   0  0  0  0  0  0  0  0  0  0  0  0
   15.5187  -23.3163   -7.6863 H   0  0  0  0  0  0  0  0  0  0  0  0
   14.3005  -24.0446   -6.9772 H   0  0  0  0  0  0  0  0  0  0  0  0
   15.3945  -23.6794   -8.7576 H   0  0  0  0  0  0  0  0  0  0  0  0
   14.4169  -23.5974   -5.5501 H   0  0  0  0  0  0  0  0  0  0  0  0
   14.3030  -22.5303   -4.1064 H   0  0  0  0  0  0  0  0  0  0  0  0
   14.2746  -22.6393   -4.4543 H   0  0  0  0  0  0  0  0  0  0  0  0
   15.9768  -21.4435   -1.6224 H   0  0  0  0  0  0  0  0  0  0  0  0
   14.5025  -22.4588   -2.7605 H   0  0  0  0  0  0  0  0  0  0  0  0
   17.2060  -21.2312   -2.9843 H   0  0  0  0  0  0  0  0  0  0  0  0
   20.4050  -19.6677   -7.6518 H   0  0  0  0  0  0  0  0  0  0  0  0
   19.2901  -20.6920   -8.4233 H   0  0  0  0  0  0  0  0  0  0  0  0
   18.8502  -21.2804   -9.4601 H   0  0  0  0  0  0  0  0  0  0  0  0
   22.4800  -18.3498   -8.5543 H   0  0  0  0  0  0  0  0  0  0  0  0
   22.7155  -18.9234  -10.2176 H   0  0  0  0  0  0  0  0  0  0  0  0
   20.0483  -20.2879  -10.3740 H   0  0  0  0  0  0  0  0  0  0  0  0
   20.3723  -20.9852  -11.9287 H   0  0  0  0  0  0  0  0  0  0  0  0
   23.6249  -17.9080  -11.9556 H   0  0  0  0  0  0  0  0  0  0  0  0
   22.6207  -18.4885  -10.5183 H   0  0  0  0  0  0  0  0  0  0  0  0
   23.6638  -18.3917  -13.9694 H   0  0  0  0  0  0  0  0  0  0  0  0
   20.4760  -21.3172  -13.5930 H   0  0  0  0  0  0  0  0  0  0  0  0
   20.4481  -22.0103  -16.1715 H   0  0  0  0  0  0  0  0  0  0  0  0
   21.9089  -20.7717  -16.7039 H   0  0  0  0  0  0  0  0  0  0  0  0
   20.3355  -21.6413  -14.3653 H   0  0  0  0  0  0  0  0  0  0  0  0
   22.4374  -20.3701  -16.7759 H   0  0  0  0  0  0  0  0  0  0  0  0
   23.6828  -18.5035  -14.8186 H   0  0  0  0  0  0  0  0  0  0  0  0
   24.7079  -18.4008  -17.8338 H   0  0  0  0  0  0  0  0  0  0  0  0
   24.5016  -18.0567  -15.7507 H   0  0  0  0  0  0  0  0  0  0  0  0
   23.1594  -19.8481  -17.7481 H   0  0  0  0  0  0  0  0  0  0  0  0
   21.7253  -18.4005   -6.5228 H   0  0  0  0  0  0  0  0  0  0  0  0
   18.4369  -22.1424  -11.6625 H   0  0  0  0  0  0  0  0  0  0  0  0
   19.5901  -21.5711  -12.8046 H   0  0  0  0  0  0  0  0  0  0  0  0
   22.4894  -19.6795  -13.8666 H   0  0  0  0  0  0  0  0  0  0  0  0
   20.4212  -21.0487  -13.1878 H   0  0  0  0  0  0  0  0  0  0  0  0
   23.5407  -18.3054  -11.5168 H   0  0  0  0  0  0  0  0  0  0  0  0
   23.1176  -19.1034  -13.4363 H   0  0  0  0  0  0  0  0  0  0  0  0
   20.7170  -20.3733  -11.3789 H   0  0  0  0  0  0  0  0  0  0  0  0
   22.5474  -18.5111   -9.3956 H   0  0  0  0  0  0  0  0  0  0  0  0
   21.6184  -18.8484   -7.9871 H   0  0  0  0  0  0  0  0  0  0  0  0
   20.0659  -19.9375   -7.7212 H   0  0  0  0  0  0  0  0  0  0  0  0
   18.9666  -21.6955  -11.4539 H   0  0  0  0  0  0  0  0  0  0  0  0
   17.4428  -22.3451   -9.5265 H   0  0  0  0  0  0  0  0  0  0  0  0
   18.0646  -22.2371  -10.9368 H   0  0  0  0  0  0  0  0  0  0  0  0
   19.4917  -20.6515   -8.8594 H   0  0  0  0  0  0  0  0  0  0  0  0
  1  2  2  3
  2  3  1  0
  3  4  1  0
  4  5  1  0
  5  6  1  0
  6  7  1  0
  7  8  1  0
  8  9  1  0
  9 10  1  0
 10 11  1  0
 11 12  1  0
 12 13  1  0
 13 14  1  0
 13 15  1  0
 15 16  1  0
 16 17  1  0
 17 18  1  0
 18 19  1  0
 19 20  1  0
 13 21  1  0
  7 22  1  0
 22 23  1  0
 23 24  1  0
 24 25  1  0
 25 26  1  0
 26 27  1  0
 27 28  1  0
 28 29  1  0
 29 30  1  0
 30 31  1  0
 31 32  1  0
 31 33  1  0
 33 34  1  0
 25 35  1  0
  2 36  1  0
 36 37  1  0
 37 38  1  0
 38 39  1  0
 39 40  1  0
 40 41  1  0
 41 42  1  0
 42 43  1  0
 43 44  1  0
 44 45  1  0
 23  3  1  0
 35 24  1  0
 43 36  1  0
 10  7  1  0
 21 11  1  0
 24 22  1  0
 30 27  1  0
 41 38  1  0
 11  8  1  0
 18 15  1  0
 35 22  1  0
 44 38  1  0
 31 29  1  0
  1 46  1  0
  1 47  1  0
  3 48  1  0
  5 49  1  0
  5 50  1  0
  6 51  1  0
  6 52  1  0
  8 53  1  0
 10 54  1  0
 12 55  1  0
 12 56  1  0
 14 57  1  0
 14 58  1  0
 14 59  1  0
 15 60  1  0
 16 61  1  0
 16 62  1  0
 17 63  1  0
 17 64  1  0
 18 65  1  0
 19 66  1  0
 19 67  1  0
 20 68  1  0
 20 69  1  0
 20 70  1  0
 21 71  1  0
 21 72  1  0
 23 73  1  0
 25 74  1  0
 26 75  1  0
 26 76  1  0
 27 77  1  0
 28 78  1  0
 28 79  1  0
 29 80  1  0
 30 81  1  0
 32 82  1  0
 32 83  1  0
 32 84  1  0
 33 85  1  0
 33 86  1  0
 34 87  1  0
 34 88  1  0
 34 89  1  0
 35 90  1  0
 37 91  1  0
 37 92  1  0
 39 93  1  0
 39 94  1  0
 40 95  1  0
 40 96  1  0
 41 97  1  0
 42 98  1  0
 42 99  1  0
 43100  1  0
 44101  1  0
 45102  1  0
 45103  1  0
 45104  1  0
M  END
