
     RDKit          2D

105109  0  0  0  0  0  0  0  0999 V2000
   31.2694  -23.3029   -3.0256 C   0  0  0  0  0  0  0  0  0  0  0  0
   29.8794  -22.7421   -3.0852 C   0  0  0  0  0  0  0  0  0  0  0  0
   28.4894  -22.1814   -3.1450 C   0  0  0  0  0  0  0  0  0  0  0  0
   27.0995  -21.6207   -3.2046 N   0  0  0  0  0  2  0  0  0  0  0  0
   26.3363  -21.3713   -1.9376 C   0  0  0  0  0  0  0  0  0  0  0  0
   25.1172  -21.0252   -2.7400 C   0  0  0  0  0  0  0  0  0  0  0  0
   23.8980  -20.6792   -3.5425 C   0  0  0  0  0  0  0  0  0  0  0  0
   22.6789  -20.3331   -4.3449 C   0  0  0  0  0  0  0  0  0  0  0  0
   21.4597  -19.9870   -5.1474 O   0  0  0  0  0  0  0  0  0  0  0  0
   21.5357  -19.9406   -6.6448 O   0  0  0  0  0  0  0  0  0  0  0  0
   27.5555  -21.7174   -1.1352 N   0  0  0  0  0  2  0  0  0  0  0  0
   26.7923  -21.4680    0.1319 C   0  0  0  0  0  0  0  0  0  0  0  0
   28.0114  -21.8140    0.9343 N   0  0  0  0  0  0  0  0  0  0  0  0
   28.1213  -21.3672    2.3620 F   0  0  0  0  0  0  0  0  0  0  0  0
   25.5731  -21.1219   -0.6706 N   0  0  0  0  0  0  0  0  0  0  0  0
   24.1714  -20.7008   -0.3421 C   0  0  0  0  0  0  0  0  0  0  0  0
   22.7697  -20.2798   -0.0136 C   0  0  0  0  0  0  0  0  0  0  0  0
   21.3680  -19.8587    0.3149 C   0  0  0  0  0  0  0  0  0  0  0  0
   21.6906  -19.9267    1.7783 C   0  0  0  0  0  0  0  0  0  0  0  0
   20.2888  -19.5056    2.1068 C   0  0  0  0  0  0  0  0  0  0  0  0
   20.6114  -19.5735    3.5701 C   0  0  0  0  0  0  0  0  0  0  0  0
   20.9339  -19.6414    5.0334 C   0  0  0  0  0  0  0  0  0  0  0  0
   21.2565  -19.7094    6.4967 C   0  0  0  0  0  0  0  0  0  0  0  0
   21.5790  -19.7772    7.9601 C   0  0  0  0  0  0  0  0  0  0  0  0
   21.9016  -19.8452    9.4235 C   0  0  0  0  0  0  0  0  0  0  0  0
   22.2242  -19.9131   10.8868 C   0  0  0  0  0  0  0  0  0  0  0  0
   19.8546  -19.2888    6.8253 C   0  0  0  0  0  0  0  0  0  0  0  0
   18.4528  -18.8682    7.1539 C   0  0  0  0  0  0  0  0  0  0  0  0
   18.8695  -18.5825    8.5661 C   0  0  0  0  0  0  0  0  0  0  0  0
   19.2862  -18.2968    9.9785 C   0  0  0  0  0  0  0  0  0  0  0  0
   17.4677  -18.1619    8.8947 C   0  0  0  0  0  0  0  0  0  0  0  0
   16.0453  -17.9406    8.4730 C   0  0  0  0  0  0  0  0  0  0  0  0
   15.4633  -17.4514    9.7661 C   0  0  0  0  0  0  0  0  0  0  0  0
   17.0509  -18.4476    7.4823 C   0  0  0  0  0  0  0  0  0  0  0  0
   18.8871  -19.0845    2.4352 C   0  0  0  0  0  0  0  0  0  0  0  0
   18.5646  -19.0166    0.9720 C   0  0  0  0  0  0  0  0  0  0  0  0
   18.2420  -18.9487   -0.4914 C   0  0  0  0  0  0  0  0  0  0  0  0
   17.2295  -17.8763   -0.2184 F   0  0  0  0  0  0  0  0  0  0  0  0
   17.9195  -18.8808   -1.9547 C   0  0  0  0  0  0  0  0  0  0  0  0
   17.5969  -18.8128   -3.4180 C   0  0  0  0  0  0  0  0  0  0  0  0
   17.2744  -18.7449   -4.8814 C   0  0  0  0  0  0  0  0  0  0  0  0
   16.2428  -17.7758   -5.3778 C   0  0  0  0  0  0  0  0  0  0  0  0
   15.9202  -17.7078   -6.8411 C   0  0  0  0  0  0  0  0  0  0  0  0
   15.5976  -17.6399   -8.3045 C   0  0  0  0  0  0  0  0  0  0  0  0
   19.9663  -19.4377    0.6434 C   0  0  0  0  0  0  0  0  0  0  0  0
   32.6593  -23.8636   -2.9659 H   0  0  0  0  0  0  0  0  0  0  0  0
   28.4069  -22.2266   -1.6479 H   0  0  0  0  0  0  0  0  0  0  0  0
   28.5720  -22.1362   -4.6421 H   0  0  0  0  0  0  0  0  0  0  0  0
   25.9676  -20.8726   -3.9662 H   0  0  0  0  0  0  0  0  0  0  0  0
   24.3935  -21.1049   -1.9242 H   0  0  0  0  0  0  0  0  0  0  0  0
   24.7484  -20.5266   -4.7687 H   0  0  0  0  0  0  0  0  0  0  0  0
   22.9053  -20.7884   -2.4233 H   0  0  0  0  0  0  0  0  0  0  0  0
   23.4636  -20.5055   -5.6116 H   0  0  0  0  0  0  0  0  0  0  0  0
   21.8941  -20.1607   -3.0783 H   0  0  0  0  0  0  0  0  0  0  0  0
   20.3166  -19.5946   -7.4472 H   0  0  0  0  0  0  0  0  0  0  0  0
   26.0291  -21.2186    1.3989 H   0  0  0  0  0  0  0  0  0  0  0  0
   29.1207  -22.6069    0.3090 H   0  0  0  0  0  0  0  0  0  0  0  0
   23.6968  -20.5759   -1.3192 H   0  0  0  0  0  0  0  0  0  0  0  0
   24.4929  -20.7725    1.1213 H   0  0  0  0  0  0  0  0  0  0  0  0
   23.0596  -20.3500    0.8204 H   0  0  0  0  0  0  0  0  0  0  0  0
   22.4473  -20.2116   -1.4769 H   0  0  0  0  0  0  0  0  0  0  0  0
   21.0454  -19.7908   -1.1484 H   0  0  0  0  0  0  0  0  0  0  0  0
   21.9805  -19.9967    2.6122 H   0  0  0  0  0  0  0  0  0  0  0  0
   22.5353  -20.1783    1.6910 H   0  0  0  0  0  0  0  0  0  0  0  0
   19.2594  -19.1641    4.0746 H   0  0  0  0  0  0  0  0  0  0  0  0
   21.4562  -19.8250    3.4828 H   0  0  0  0  0  0  0  0  0  0  0  0
   22.3358  -20.0622    4.7049 H   0  0  0  0  0  0  0  0  0  0  0  0
   19.5033  -19.2155    5.1811 H   0  0  0  0  0  0  0  0  0  0  0  0
   22.6583  -20.1299    6.1682 H   0  0  0  0  0  0  0  0  0  0  0  0
   22.9797  -20.2019    7.6316 H   0  0  0  0  0  0  0  0  0  0  0  0
   20.4848  -19.4426    8.3687 H   0  0  0  0  0  0  0  0  0  0  0  0
   23.3041  -20.2636    9.0949 H   0  0  0  0  0  0  0  0  0  0  0  0
   20.4703  -19.4216    9.5712 H   0  0  0  0  0  0  0  0  0  0  0  0
   22.5467  -19.9810   12.3501 H   0  0  0  0  0  0  0  0  0  0  0  0
   23.6229  -20.3439   10.5585 H   0  0  0  0  0  0  0  0  0  0  0  0
   20.8253  -19.4823   11.2151 H   0  0  0  0  0  0  0  0  0  0  0  0
   20.0514  -19.0166    7.9930 H   0  0  0  0  0  0  0  0  0  0  0  0
   19.2699  -19.5223    5.4638 H   0  0  0  0  0  0  0  0  0  0  0  0
   18.0361  -19.1539    5.7415 H   0  0  0  0  0  0  0  0  0  0  0  0
   17.4084  -18.2436    8.5431 H   0  0  0  0  0  0  0  0  0  0  0  0
   19.7029  -18.0111   11.3908 H   0  0  0  0  0  0  0  0  0  0  0  0
   18.2949  -17.2028   10.2438 H   0  0  0  0  0  0  0  0  0  0  0  0
   20.2774  -19.3909    9.7131 H   0  0  0  0  0  0  0  0  0  0  0  0
   17.5073  -17.7771   10.3439 H   0  0  0  0  0  0  0  0  0  0  0  0
   14.8249  -17.8891    7.6023 H   0  0  0  0  0  0  0  0  0  0  0  0
   14.8814  -16.9622   11.0592 H   0  0  0  0  0  0  0  0  0  0  0  0
   16.8248  -17.4929   10.3945 H   0  0  0  0  0  0  0  0  0  0  0  0
   14.0411  -17.3506    9.3000 H   0  0  0  0  0  0  0  0  0  0  0  0
   16.2857  -18.6148    6.2031 H   0  0  0  0  0  0  0  0  0  0  0  0
   17.4854  -18.6635    2.7638 H   0  0  0  0  0  0  0  0  0  0  0  0
   19.0364  -19.1006    3.9278 H   0  0  0  0  0  0  0  0  0  0  0  0
   17.1629  -18.5956    1.3004 H   0  0  0  0  0  0  0  0  0  0  0  0
   19.2078  -20.0049   -0.9407 H   0  0  0  0  0  0  0  0  0  0  0  0
   16.9151  -17.8003   -1.6832 H   0  0  0  0  0  0  0  0  0  0  0  0
   18.9239  -19.9612   -2.2263 H   0  0  0  0  0  0  0  0  0  0  0  0
   16.5913  -17.7336   -3.1464 H   0  0  0  0  0  0  0  0  0  0  0  0
   18.6026  -19.8922   -3.6898 H   0  0  0  0  0  0  0  0  0  0  0  0
   17.9835  -19.6462   -5.8483 H   0  0  0  0  0  0  0  0  0  0  0  0
   15.5337  -16.8745   -4.4109 H   0  0  0  0  0  0  0  0  0  0  0  0
   14.9229  -16.6205   -6.5709 H   0  0  0  0  0  0  0  0  0  0  0  0
   16.9176  -18.7952   -7.1114 H   0  0  0  0  0  0  0  0  0  0  0  0
   15.2751  -17.5720   -9.7678 H   0  0  0  0  0  0  0  0  0  0  0  0
   14.6963  -16.4680   -8.0514 H   0  0  0  0  0  0  0  0  0  0  0  0
   16.4990  -18.8119   -8.5575 H   0  0  0  0  0  0  0  0  0  0  0  0
   19.8170  -19.4216   -0.8490 H   0  0  0  0  0  0  0  0  0  0  0  0
  1  2  3  0
  2  3  1  0
  3  4  1  0
  5  4  1  1
  5  6  1  0
  6  7  1  0
  7  8  1  0
  8  9  1  0
  9 10  1  0
  5 11  1  0
 11 12  1  0
 12 13  1  0
 13 14  1  0
 12 15  1  0
 15 16  1  0
 16 17  1  0
 17 18  1  0
 18 19  1  0
 19 20  1  0
 20 21  1  1
 21 22  1  0
 22 23  1  0
 23 24  1  0
 24 25  1  0
 25 26  1  0
 23 27  1  0
 27 28  1  0
 28 29  1  0
 29 30  1  0
 29 31  1  0
 31 32  1  0
 32 33  1  0
 32 34  1  0
 20 35  1  0
 35 36  1  0
 36 37  1  0
 37 38  1  0
 37 39  1  0
 39 40  1  0
 40 41  1  0
 41 42  2  3
 42 43  1  0
 43 44  1  0
 36 45  1  0
 15  5  1  0
 45 18  1  0
 45 20  1  0
 34 28  1  0
 34 31  1  0
  1 46  1  0
  3 47  1  0
  3 48  1  0
  6 49  1  0
  6 50  1  0
  7 51  1  0
  7 52  1  0
  8 53  1  0
  8 54  1  0
 10 55  1  0
 12 56  1  6
 13 57  1  0
 16 58  1  0
 16 59  1  0
 17 60  1  0
 17 61  1  0
 18 62  1  1
 19 63  1  0
 19 64  1  0
 21 65  1  0
 21 66  1  0
 22 67  1  0
 22 68  1  0
 23 69  1  6
 24 70  1  0
 24 71  1  0
 25 72  1  0
 25 73  1  0
 26 74  1  0
 26 75  1  0
 26 76  1  0
 27 77  1  0
 27 78  1  0
 28 79  1  1
 29 80  1  6
 30 81  1  0
 30 82  1  0
 30 83  1  0
 31 84  1  6
 32 85  1  1
 33 86  1  0
 33 87  1  0
 33 88  1  0
 34 89  1  6
 35 90  1  0
 35 91  1  0
 36 92  1  6
 37 93  1  6
 39 94  1  0
 39 95  1  0
 40 96  1  0
 40 97  1  0
 41 98  1  0
 42 99  1  0
 43100  1  0
 43101  1  0
 44102  1  0
 44103  1  0
 44104  1  0
 45105  1  1
M  RAD  2   4   2  11   2
M  END
