
     RDKit          2D

 65 68  0  0  0  0  0  0  0  0999 V2000
   -5.7459   29.4106   10.9261 C   0  0  0  0  0  0  0  0  0  0  0  0
   -5.5815   28.3518    9.8764 C   0  0  0  0  0  0  0  0  0  0  0  0
   -5.4172   27.2930    8.8266 C   0  0  0  0  0  0  0  0  0  0  0  0
   -4.2026   27.8151    8.1181 C   0  0  0  0  0  0  0  0  0  0  0  0
   -3.0774   27.9065    7.1304 C   0  0  0  0  0  0  0  0  0  0  0  0
   -1.9521   27.9979    6.1427 C   0  0  0  0  0  0  0  0  0  0  0  0
   -0.8269   28.0893    5.1550 C   0  0  0  0  0  0  0  0  0  0  0  0
   -1.9689   29.4930    6.2620 C   0  0  0  0  0  0  0  0  0  0  0  0
   -0.8191   29.5824    5.3028 C   0  0  0  0  0  0  0  0  0  0  0  0
    0.0058   28.5884    4.5402 N   0  0  0  0  0  0  0  0  0  0  0  0
   -0.8358   31.0776    5.4221 C   0  0  0  0  0  0  0  0  0  0  0  0
   -0.2754   32.4171    5.0458 C   0  0  0  0  0  0  0  0  0  0  0  0
   -0.8648   33.6672    5.6287 N   0  0  0  0  0  2  0  0  0  0  0  0
   -2.0146   33.5778    6.5878 C   0  0  0  0  0  0  0  0  0  0  0  0
   -3.1008   34.0053    7.5299 C   0  0  0  0  0  0  0  0  0  0  0  0
   -2.7238   35.4408    7.3133 Cl  0  0  0  0  0  0  0  0  0  0  0  0
   -4.1870   34.4326    8.4720 C   0  0  0  0  0  0  0  0  0  0  0  0
   -5.2732   34.8599    9.4141 C   0  0  0  0  0  0  0  0  0  0  0  0
   -4.5599   32.9967    8.6934 C   0  0  0  0  0  0  0  0  0  0  0  0
   -4.9329   31.5607    8.9148 F   0  0  0  0  0  0  0  0  0  0  0  0
   -2.5750   32.2383    6.9641 N   0  0  0  0  0  2  0  0  0  0  0  0
   -1.9856   30.9882    6.3812 C   0  0  0  0  0  0  0  0  0  0  0  0
   -4.8508   26.5433    7.6575 C   0  0  0  0  0  0  0  0  0  0  0  0
   -5.8117   25.3930    7.5954 C   0  0  0  0  0  0  0  0  0  0  0  0
   -6.9063   24.3841    7.7793 C   0  0  0  0  0  0  0  0  0  0  0  0
   -6.7420   23.3253    6.7296 C   0  0  0  0  0  0  0  0  0  0  0  0
   -5.5457   23.6798    5.8969 C   0  0  0  0  0  0  0  0  0  0  0  0
   -4.9708   24.9578    6.4321 C   0  0  0  0  0  0  0  0  0  0  0  0
   -3.7664   25.6746    5.8976 N   0  0  0  0  0  0  0  0  0  0  0  0
   -5.9103   30.4693   11.9758 H   0  0  0  0  0  0  0  0  0  0  0  0
   -6.6533   28.5015   11.7010 H   0  0  0  0  0  0  0  0  0  0  0  0
   -4.8386   30.3196   10.1513 H   0  0  0  0  0  0  0  0  0  0  0  0
   -4.5250   29.1093    9.5128 H   0  0  0  0  0  0  0  0  0  0  0  0
   -6.7846   27.6338   10.4123 H   0  0  0  0  0  0  0  0  0  0  0  0
   -6.6114   26.5218    9.3054 H   0  0  0  0  0  0  0  0  0  0  0  0
   -3.8423   28.9570    8.7414 H   0  0  0  0  0  0  0  0  0  0  0  0
   -2.6292   29.0263    8.0221 H   0  0  0  0  0  0  0  0  0  0  0  0
   -3.5255   26.7866    6.2386 H   0  0  0  0  0  0  0  0  0  0  0  0
   -1.9354   26.5027    6.0234 H   0  0  0  0  0  0  0  0  0  0  0  0
   -0.3058   27.9724    4.5631 H   0  0  0  0  0  0  0  0  0  0  0  0
   -1.4205   26.8122    4.6382 H   0  0  0  0  0  0  0  0  0  0  0  0
   -0.1084   29.3488    5.5388 H   0  0  0  0  0  0  0  0  0  0  0  0
   -3.1121   29.5865    7.2285 H   0  0  0  0  0  0  0  0  0  0  0  0
   -0.1376   27.0953    4.5556 H   0  0  0  0  0  0  0  0  0  0  0  0
    0.2366   30.6003    4.4881 H   0  0  0  0  0  0  0  0  0  0  0  0
    0.5947   33.4466    4.3877 H   0  0  0  0  0  0  0  0  0  0  0  0
    0.6980   31.6778    4.1765 H   0  0  0  0  0  0  0  0  0  0  0  0
   -1.8314   35.0658    6.5387 H   0  0  0  0  0  0  0  0  0  0  0  0
   -3.3426   32.5282    7.6300 H   0  0  0  0  0  0  0  0  0  0  0  0
   -3.8140   35.8685    8.2505 H   0  0  0  0  0  0  0  0  0  0  0  0
   -6.3594   35.2874   10.3562 H   0  0  0  0  0  0  0  0  0  0  0  0
   -4.8950   36.2955    9.1990 H   0  0  0  0  0  0  0  0  0  0  0  0
   -5.7810   33.4872    9.7424 H   0  0  0  0  0  0  0  0  0  0  0  0
   -5.6813   33.2456    9.6581 H   0  0  0  0  0  0  0  0  0  0  0  0
   -3.5295   32.3976    7.7827 H   0  0  0  0  0  0  0  0  0  0  0  0
   -3.0919   30.5148    7.2768 H   0  0  0  0  0  0  0  0  0  0  0  0
   -3.8579   26.3454    6.5507 H   0  0  0  0  0  0  0  0  0  0  0  0
   -6.5729   25.9314    8.7704 H   0  0  0  0  0  0  0  0  0  0  0  0
   -7.3175   25.2707    8.9172 H   0  0  0  0  0  0  0  0  0  0  0  0
   -8.0869   23.5605    8.2011 H   0  0  0  0  0  0  0  0  0  0  0  0
   -7.9569   22.7231    7.3708 H   0  0  0  0  0  0  0  0  0  0  0  0
   -6.8315   22.1406    5.8139 H   0  0  0  0  0  0  0  0  0  0  0  0
   -5.8855   22.4210    5.1553 H   0  0  0  0  0  0  0  0  0  0  0  0
   -4.4205   23.7712    4.9092 H   0  0  0  0  0  0  0  0  0  0  0  0
   -3.0219   25.1161    4.7213 H   0  0  0  0  0  0  0  0  0  0  0  0
  1  2  1  0
  2  3  1  0
  3  4  1  0
  4  5  1  0
  5  6  1  0
  6  7  1  0
  6  8  1  0
  8  9  1  0
  9 10  2  3
  9 11  1  0
 11 12  1  0
 12 13  1  0
 13 14  1  0
 14 15  1  0
 15 16  1  0
 15 17  1  0
 17 18  1  0
 17 19  1  0
 19 20  1  0
 14 21  1  0
 21 22  1  0
  4 23  1  0
 23 24  1  0
 24 25  1  0
 25 26  1  0
 26 27  1  0
 27 28  1  0
 28 29  2  3
 23  3  1  0
 28 24  1  0
 22  8  1  0
 22 11  1  0
  1 30  1  0
  1 31  1  0
  1 32  1  0
  2 33  1  0
  2 34  1  0
  3 35  1  0
  4 36  1  0
  5 37  1  0
  5 38  1  0
  6 39  1  0
  7 40  1  0
  7 41  1  0
  7 42  1  0
  8 43  1  0
 10 44  1  0
 11 45  1  0
 12 46  1  0
 12 47  1  0
 14 48  1  0
 15 49  1  0
 17 50  1  0
 18 51  1  0
 18 52  1  0
 18 53  1  0
 19 54  1  0
 19 55  1  0
 22 56  1  0
 23 57  1  0
 24 58  1  0
 25 59  1  0
 25 60  1  0
 26 61  1  0
 26 62  1  0
 27 63  1  0
 27 64  1  0
 29 65  1  0
M  RAD  2  13   2  21   2
M  END
