
     RDKit          2D

 43 42  0  0  0  0  0  0  0  0999 V2000
   21.8477  -14.4375    3.2146 C   0  0  0  0  0  0  0  0  0  0  0  0
   20.9066  -15.2768    2.4021 C   0  0  0  0  0  0  0  0  0  0  0  0
   19.9656  -16.1160    1.5897 C   0  0  0  0  0  0  0  0  0  0  0  0
   19.0246  -16.9553    0.7772 C   0  0  0  0  0  0  0  0  0  0  0  0
   20.1900  -17.7001    0.1968 O   0  0  0  0  0  0  0  0  0  0  0  0
   18.0835  -17.7946   -0.0352 C   0  0  0  0  0  0  0  0  0  0  0  0
   17.1425  -18.6338   -0.8477 C   0  0  0  0  0  0  0  0  0  0  0  0
   16.2014  -19.4731   -1.6601 C   0  0  0  0  0  0  0  0  0  0  0  0
   15.2604  -20.3124   -2.4726 C   0  0  0  0  0  0  0  0  0  0  0  0
   13.7805  -20.0884   -2.3745 Al  0  0  0  0  0  3  0  0  0  0  0  0
   15.7993  -21.3756   -3.3832 Se  0  0  0  0  0  2  0  0  0  0  0  0
   14.8583  -22.2149   -4.1956 C   0  0  0  0  0  0  0  0  0  0  0  0
   13.9172  -23.0542   -5.0081 C   0  0  0  0  0  0  0  0  0  0  0  0
   12.7518  -22.3100   -4.4269 N   0  0  0  0  0  2  0  0  0  0  0  0
   15.0827  -23.7983   -5.5892 O   0  0  0  0  0  1  0  0  0  0  0  0
   12.9762  -23.8935   -5.8205 C   0  0  0  0  0  0  0  0  0  0  0  0
   12.0352  -24.7327   -6.6330 C   0  0  0  0  0  0  0  0  0  0  0  0
   11.0941  -25.5720   -7.4453 N   0  0  0  0  0  0  0  0  0  0  0  0
   22.7887  -13.5982    4.0270 H   0  0  0  0  0  0  0  0  0  0  0  0
   23.0146  -15.1596    2.6090 H   0  0  0  0  0  0  0  0  0  0  0  0
   20.6808  -13.7153    3.8201 H   0  0  0  0  0  0  0  0  0  0  0  0
   22.0700  -16.0436    1.8468 H   0  0  0  0  0  0  0  0  0  0  0  0
   19.7432  -14.5099    2.9574 H   0  0  0  0  0  0  0  0  0  0  0  0
   18.9755  -14.9894    1.5727 H   0  0  0  0  0  0  0  0  0  0  0  0
   21.0630  -17.1319    1.7055 H   0  0  0  0  0  0  0  0  0  0  0  0
   17.8592  -16.2105    1.3577 H   0  0  0  0  0  0  0  0  0  0  0  0
   21.5116  -17.9638    0.8555 H   0  0  0  0  0  0  0  0  0  0  0  0
   16.9179  -17.0524    0.5481 H   0  0  0  0  0  0  0  0  0  0  0  0
   19.2491  -18.5368   -0.6186 H   0  0  0  0  0  0  0  0  0  0  0  0
   18.3078  -19.3802   -1.4264 H   0  0  0  0  0  0  0  0  0  0  0  0
   15.9772  -17.8875   -0.2690 H   0  0  0  0  0  0  0  0  0  0  0  0
   17.3670  -20.2163   -2.2424 H   0  0  0  0  0  0  0  0  0  0  0  0
   15.0359  -18.7300   -1.0779 H   0  0  0  0  0  0  0  0  0  0  0  0
   12.3005  -19.8645   -2.2763 H   0  0  0  0  0  0  0  0  0  0  0  0
   13.6929  -21.4699   -3.6154 H   0  0  0  0  0  0  0  0  0  0  0  0
   16.0237  -22.9599   -4.7758 H   0  0  0  0  0  0  0  0  0  0  0  0
   11.2977  -22.5480   -4.7081 H   0  0  0  0  0  0  0  0  0  0  0  0
   14.1416  -24.6388   -6.4003 H   0  0  0  0  0  0  0  0  0  0  0  0
   11.7048  -23.2559   -5.3441 H   0  0  0  0  0  0  0  0  0  0  0  0
   13.2005  -25.4784   -7.2126 H   0  0  0  0  0  0  0  0  0  0  0  0
   10.8698  -23.9871   -6.0533 H   0  0  0  0  0  0  0  0  0  0  0  0
   10.5620  -26.8578   -6.8855 H   0  0  0  0  0  0  0  0  0  0  0  0
   10.6851  -25.1253   -8.8176 H   0  0  0  0  0  0  0  0  0  0  0  0
  1  2  1  0
  2  3  1  0
  3  4  1  0
  4  5  1  0
  4  6  1  0
  6  7  1  0
  7  8  1  0
  8  9  1  0
  9 10  2  3
  9 11  1  0
 11 12  1  0
 12 13  1  0
 13 14  1  0
 13 15  1  0
 13 16  1  0
 16 17  1  0
 17 18  1  0
  1 19  1  0
  1 20  1  0
  1 21  1  0
  2 22  1  0
  2 23  1  0
  3 24  1  0
  3 25  1  0
  4 26  1  0
  5 27  1  0
  6 28  1  0
  6 29  1  0
  7 30  1  0
  7 31  1  0
  8 32  1  0
  8 33  1  0
 10 34  1  0
 12 35  1  0
 12 36  1  0
 14 37  1  0
 16 38  1  0
 16 39  1  0
 17 40  1  0
 17 41  1  0
 18 42  1  0
 18 43  1  0
M  RAD  2  14   2  15   2
M  END
