
     RDKit          2D

115121  0  0  0  0  0  0  0  0999 V2000
    4.0709   19.3204    5.6890 C   0  0  0  0  0  0  0  0  0  0  0  0
    3.6873   20.6186    6.3351 C   0  0  0  0  0  0  0  0  0  0  0  0
    3.3036   21.9167    6.9812 C   0  0  0  0  0  0  0  0  0  0  0  0
    2.9727   21.1877    8.2497 O   0  0  0  0  0  0  0  0  0  0  0  0
    2.9200   23.2149    7.6274 C   0  0  0  0  0  0  0  0  0  0  0  0
    2.8648   24.6627    7.2387 C   0  0  0  0  0  0  0  0  0  0  0  0
    2.5962   26.1181    7.4824 C   0  0  0  0  0  0  0  0  0  0  0  0
    2.1673   27.2931    8.3103 C   0  0  0  0  0  0  0  0  0  0  0  0
    1.6631   27.9549    9.5584 C   0  0  0  0  0  0  0  0  0  0  0  0
    1.9018   28.9548    8.4660 C   0  0  0  0  0  0  0  0  0  0  0  0
    2.1405   29.9547    7.3738 N   0  0  0  0  0  0  0  0  0  0  0  0
    2.1232   31.3724    6.8838 C   0  0  0  0  0  0  0  0  0  0  0  0
    2.5712   30.2690    5.9717 C   0  0  0  0  0  0  0  0  0  0  0  0
    2.8841   31.0621    4.7376 C   0  0  0  0  0  0  0  0  0  0  0  0
    3.1970   31.8552    3.5035 C   0  0  0  0  0  0  0  0  0  0  0  0
    2.9105   28.8902    5.4883 C   0  0  0  0  0  0  0  0  0  0  0  0
    3.2498   27.5113    5.0050 C   0  0  0  0  0  0  0  0  0  0  0  0
    1.1833   27.9723   10.9795 C   0  0  0  0  0  0  0  0  0  0  0  0
    0.8232   27.3421   12.2922 C   0  0  0  0  0  0  0  0  0  0  0  0
    0.3446   28.2841   13.3569 C   0  0  0  0  0  0  0  0  0  0  0  0
   -0.1340   29.2261   14.4216 C   0  0  0  0  0  0  0  0  0  0  0  0
    0.1753   27.1309   14.3011 C   0  0  0  0  0  0  0  0  0  0  0  0
    0.6539   26.1889   13.2364 C   0  0  0  0  0  0  0  0  0  0  0  0
    1.1168   26.3050   11.8143 C   0  0  0  0  0  0  0  0  0  0  0  0
    0.8612   27.7692   12.0160 C   0  0  0  0  0  0  0  0  0  0  0  0
    0.6056   29.2334   12.2176 C   0  0  0  0  0  0  0  0  0  0  0  0
    1.4580   24.9290   11.3242 C   0  0  0  0  0  0  0  0  0  0  0  0
    1.2060   23.9625   12.4433 C   0  0  0  0  0  0  0  0  0  0  0  0
    1.6706   22.9370   11.4522 C   0  0  0  0  0  0  0  0  0  0  0  0
    2.1352   21.9114   10.4609 C   0  0  0  0  0  0  0  0  0  0  0  0
    0.7091   24.7412   13.6251 C   0  0  0  0  0  0  0  0  0  0  0  0
    0.9777   23.2857   13.3814 C   0  0  0  0  0  0  0  0  0  0  0  0
    1.4066   22.1108   12.5535 C   0  0  0  0  0  0  0  0  0  0  0  0
    1.9109   21.4489   11.3053 C   0  0  0  0  0  0  0  0  0  0  0  0
    2.3905   21.4315    9.8843 C   0  0  0  0  0  0  0  0  0  0  0  0
    2.3699   20.0519   10.4727 C   0  0  0  0  0  0  0  0  0  0  0  0
    2.3492   18.6722   11.0611 C   0  0  0  0  0  0  0  0  0  0  0  0
    2.8451   17.8810    9.8873 C   0  0  0  0  0  0  0  0  0  0  0  0
    3.2203   16.5650    9.2729 C   0  0  0  0  0  0  0  0  0  0  0  0
    3.0861   15.3468   10.1377 C   0  0  0  0  0  0  0  0  0  0  0  0
    2.5790   15.7846   11.4798 C   0  0  0  0  0  0  0  0  0  0  0  0
    2.5032   17.1842   11.1708 C   0  0  0  0  0  0  0  0  0  0  0  0
    2.8785   15.8682   10.5566 C   0  0  0  0  0  0  0  0  0  0  0  0
    2.7507   22.0618    8.5716 C   0  0  0  0  0  0  0  0  0  0  0  0
    4.4546   18.0222    5.0428 H   0  0  0  0  0  0  0  0  0  0  0  0
    3.7374   18.5909    6.9565 H   0  0  0  0  0  0  0  0  0  0  0  0
    4.4045   20.0499    4.4214 H   0  0  0  0  0  0  0  0  0  0  0  0
    3.3965   19.7355    7.5122 H   0  0  0  0  0  0  0  0  0  0  0  0
    4.0273   21.3488    5.0698 H   0  0  0  0  0  0  0  0  0  0  0  0
    3.6345   22.6458    5.7128 H   0  0  0  0  0  0  0  0  0  0  0  0
    3.0719   19.7110    8.4943 H   0  0  0  0  0  0  0  0  0  0  0  0
    3.3949   23.2382    6.2048 H   0  0  0  0  0  0  0  0  0  0  0  0
    3.3673   23.9645    6.0097 H   0  0  0  0  0  0  0  0  0  0  0  0
    3.2151   25.3296    5.9415 H   0  0  0  0  0  0  0  0  0  0  0  0
    3.0803   26.0598    6.0638 H   0  0  0  0  0  0  0  0  0  0  0  0
    2.6923   27.3988    6.7075 H   0  0  0  0  0  0  0  0  0  0  0  0
    2.5371   27.8862    6.9831 H   0  0  0  0  0  0  0  0  0  0  0  0
    2.1602   28.7013    7.7937 H   0  0  0  0  0  0  0  0  0  0  0  0
    1.4364   29.4335    9.6683 H   0  0  0  0  0  0  0  0  0  0  0  0
    1.4558   30.0584    9.3789 H   0  0  0  0  0  0  0  0  0  0  0  0
    2.3477   27.8512    7.5533 H   0  0  0  0  0  0  0  0  0  0  0  0
    1.6206   32.0671    8.1145 H   0  0  0  0  0  0  0  0  0  0  0  0
    2.2205   32.6512    6.1059 H   0  0  0  0  0  0  0  0  0  0  0  0
    3.3068   29.9065    3.8799 H   0  0  0  0  0  0  0  0  0  0  0  0
    2.5376   32.4111    5.2945 H   0  0  0  0  0  0  0  0  0  0  0  0
    3.5098   32.6483    2.2694 H   0  0  0  0  0  0  0  0  0  0  0  0
    3.6745   32.9933    4.3559 H   0  0  0  0  0  0  0  0  0  0  0  0
    2.7194   30.7171    2.6509 H   0  0  0  0  0  0  0  0  0  0  0  0
    2.5748   28.1638    6.7571 H   0  0  0  0  0  0  0  0  0  0  0  0
    3.2905   29.4526    4.1507 H   0  0  0  0  0  0  0  0  0  0  0  0
    3.5892   26.1325    4.5215 H   0  0  0  0  0  0  0  0  0  0  0  0
    2.8731   26.9493    6.3436 H   0  0  0  0  0  0  0  0  0  0  0  0
    3.5824   28.2373    3.7351 H   0  0  0  0  0  0  0  0  0  0  0  0
    1.2040   29.3520   10.3911 H   0  0  0  0  0  0  0  0  0  0  0  0
    0.8229   29.3167   11.5388 H   0  0  0  0  0  0  0  0  0  0  0  0
    0.5647   26.3926   13.4243 H   0  0  0  0  0  0  0  0  0  0  0  0
    0.3311   29.6983   12.8571 H   0  0  0  0  0  0  0  0  0  0  0  0
   -0.6126   30.1681   15.4863 H   0  0  0  0  0  0  0  0  0  0  0  0
    0.0336   30.3791   13.4769 H   0  0  0  0  0  0  0  0  0  0  0  0
   -0.3587   28.1966   15.4891 H   0  0  0  0  0  0  0  0  0  0  0  0
    0.0061   25.9777   15.2453 H   0  0  0  0  0  0  0  0  0  0  0  0
   -0.3203   27.9253   15.4730 H   0  0  0  0  0  0  0  0  0  0  0  0
    1.5263   26.7272   10.4344 H   0  0  0  0  0  0  0  0  0  0  0  0
    1.2301   28.3868   10.6998 H   0  0  0  0  0  0  0  0  0  0  0  0
    0.3551   28.0408   13.4016 H   0  0  0  0  0  0  0  0  0  0  0  0
    0.3499   30.6977   12.4193 H   0  0  0  0  0  0  0  0  0  0  0  0
    0.9683   29.8502   10.8994 H   0  0  0  0  0  0  0  0  0  0  0  0
    0.1191   29.3253   13.6336 H   0  0  0  0  0  0  0  0  0  0  0  0
    1.7961   25.6388   10.0467 H   0  0  0  0  0  0  0  0  0  0  0  0
    1.9030   23.8133   10.4257 H   0  0  0  0  0  0  0  0  0  0  0  0
    1.1727   22.5973   13.0638 H   0  0  0  0  0  0  0  0  0  0  0  0
    1.9360   23.8842   10.3197 H   0  0  0  0  0  0  0  0  0  0  0  0
    1.5790   21.6406   12.2012 H   0  0  0  0  0  0  0  0  0  0  0  0
    2.6213   21.0251    9.3527 H   0  0  0  0  0  0  0  0  0  0  0  0
    2.0492   20.6158   11.2119 H   0  0  0  0  0  0  0  0  0  0  0  0
    2.3398   22.9910    9.4399 H   0  0  0  0  0  0  0  0  0  0  0  0
    1.1140   25.1847   12.2506 H   0  0  0  0  0  0  0  0  0  0  0  0
    0.4786   23.5249   14.7756 H   0  0  0  0  0  0  0  0  0  0  0  0
    0.8816   22.0050   14.1563 H   0  0  0  0  0  0  0  0  0  0  0  0
    1.2373   20.9575   13.4977 H   0  0  0  0  0  0  0  0  0  0  0  0
    1.8423   20.1285   12.0138 H   0  0  0  0  0  0  0  0  0  0  0  0
    2.8552   20.4059    8.8930 H   0  0  0  0  0  0  0  0  0  0  0  0
    2.5194   19.6370    9.0390 H   0  0  0  0  0  0  0  0  0  0  0  0
    2.2211   20.2881   11.9464 H   0  0  0  0  0  0  0  0  0  0  0  0
    1.8461   18.9844   12.4393 H   0  0  0  0  0  0  0  0  0  0  0  0
    3.1314   18.7540    8.7016 H   0  0  0  0  0  0  0  0  0  0  0  0
    3.7274   16.1272    7.9309 H   0  0  0  0  0  0  0  0  0  0  0  0
    3.5870   14.6226    8.9234 H   0  0  0  0  0  0  0  0  0  0  0  0
    3.0565   13.9772   10.7487 H   0  0  0  0  0  0  0  0  0  0  0  0
    2.5937   14.3693   11.9764 H   0  0  0  0  0  0  0  0  0  0  0  0
    2.0879   15.9170   12.8909 H   0  0  0  0  0  0  0  0  0  0  0  0
    3.2537   14.5523    9.9422 H   0  0  0  0  0  0  0  0  0  0  0  0
    2.6938   14.7461   11.5346 H   0  0  0  0  0  0  0  0  0  0  0  0
    2.8939   20.5753    8.7132 H   0  0  0  0  0  0  0  0  0  0  0  0
    3.2472   21.2767    7.3938 H   0  0  0  0  0  0  0  0  0  0  0  0
  1  2  1  0
  2  3  1  0
  3  4  1  0
  3  5  1  0
  5  6  1  0
  6  7  1  0
  7  8  1  0
  8  9  1  0
  9 10  1  0
 10 11  1  0
 11 12  1  0
 12 13  1  0
 13 14  1  0
 14 15  1  0
 13 16  1  0
 16 17  1  0
  9 18  1  0
 18 19  1  0
 19 20  1  0
 20 21  1  0
 20 22  1  0
 22 23  1  0
 23 24  1  0
 24 25  1  0
 25 26  1  0
 24 27  1  0
 27 28  1  0
 28 29  1  0
 29 30  1  0
 28 31  1  0
 31 32  1  0
 32 33  1  0
 33 34  2  0
 34 35  1  0
 35 36  1  0
 36 37  1  0
 37 38  1  0
 38 39  1  0
 39 40  1  0
 40 41  1  0
 41 42  1  0
 42 43  1  0
 35 44  1  0
 44  5  1  0
 13 11  1  0
 23 19  1  0
 42 37  1  0
 31 23  1  0
 42 38  1  0
 43 39  1  0
  1 45  1  0
  1 46  1  0
  1 47  1  0
  2 48  1  0
  2 49  1  0
  3 50  1  0
  4 51  1  0
  5 52  1  0
  6 53  1  0
  6 54  1  0
  7 55  1  0
  7 56  1  0
  8 57  1  0
  8 58  1  0
  9 59  1  0
 10 60  1  0
 10 61  1  0
 12 62  1  0
 12 63  1  0
 14 64  1  0
 14 65  1  0
 15 66  1  0
 15 67  1  0
 15 68  1  0
 16 69  1  0
 16 70  1  0
 17 71  1  0
 17 72  1  0
 17 73  1  0
 18 74  1  0
 18 75  1  0
 19 76  1  0
 20 77  1  0
 21 78  1  0
 21 79  1  0
 21 80  1  0
 22 81  1  0
 22 82  1  0
 24 83  1  0
 25 84  1  0
 25 85  1  0
 26 86  1  0
 26 87  1  0
 26 88  1  0
 27 89  1  0
 27 90  1  0
 28 91  1  0
 29 92  1  0
 29 93  1  0
 30 94  1  0
 30 95  1  0
 30 96  1  0
 31 97  1  0
 32 98  1  0
 32 99  1  0
 33100  1  0
 34101  1  0
 35102  1  0
 36103  1  0
 36104  1  0
 37105  1  0
 38106  1  0
 39107  1  0
 40108  1  0
 40109  1  0
 41110  1  0
 41111  1  0
 43112  1  0
 43113  1  0
 44114  1  0
 44115  1  0
M  END
