
     RDKit          2D

 76 79  0  0  0  0  0  0  0  0999 V2000
    2.4635   30.0360    8.1596 C   0  0  0  0  0  0  0  0  0  0  0  0
    1.1403   29.6322    7.5799 As  0  0  0  0  0  3  0  0  0  0  0  0
    0.9200   28.2197    7.1258 C   0  0  0  0  0  0  0  0  0  0  0  0
    1.7095   27.6466    7.2553 Se  0  0  0  0  0  2  0  0  0  0  0  0
   -0.4033   27.8159    6.5461 C   0  0  0  0  0  0  0  0  0  0  0  0
   -1.7265   27.4122    5.9665 C   0  0  0  0  0  0  0  0  0  0  0  0
   -3.0497   27.0084    5.3869 N   0  0  0  0  0  0  0  0  0  0  0  0
   -3.2700   25.5959    4.9327 C   0  0  0  0  0  0  0  0  0  0  0  0
   -3.4903   24.1833    4.4786 C   0  0  0  0  0  0  0  0  0  0  0  0
    0.1051   26.4170    6.3599 C   0  0  0  0  0  0  0  0  0  0  0  0
    0.6136   25.0182    6.1737 C   0  0  0  0  0  0  0  0  0  0  0  0
    0.8357   23.5659    5.8710 C   0  0  0  0  0  0  0  0  0  0  0  0
    2.2359   23.2162    6.2800 C   0  0  0  0  0  0  0  0  0  0  0  0
    2.8790   24.4522    6.8354 C   0  0  0  0  0  0  0  0  0  0  0  0
    3.7119   25.5527    7.4230 C   0  0  0  0  0  0  0  0  0  0  0  0
    4.8590   24.5994    7.5826 C   0  0  0  0  0  0  0  0  0  0  0  0
    4.0261   23.4988    6.9949 C   0  0  0  0  0  0  0  0  0  0  0  0
    3.1932   22.3984    6.4073 C   0  0  0  0  0  0  0  0  0  0  0  0
    1.8764   25.5659    6.7697 C   0  0  0  0  0  0  0  0  0  0  0  0
    2.9777   26.3821    7.3786 C   0  0  0  0  0  0  0  0  0  0  0  0
    2.6291   27.2952    7.4941 Cl  0  0  0  0  0  0  0  0  0  0  0  0
    4.3179   26.7368    7.9515 C   0  0  0  0  0  0  0  0  0  0  0  0
    4.0478   25.3366    7.4864 C   0  0  0  0  0  0  0  0  0  0  0  0
    5.3713   24.7006    7.7926 C   0  0  0  0  0  0  0  0  0  0  0  0
   -0.9116   29.2149    6.7324 C   0  0  0  0  0  0  0  0  0  0  0  0
   -1.8419   30.3912    6.7091 C   0  0  0  0  0  0  0  0  0  0  0  0
   -0.9502   31.4403    7.3042 C   0  0  0  0  0  0  0  0  0  0  0  0
   -2.3030   29.0601    6.1938 C   0  0  0  0  0  0  0  0  0  0  0  0
   -3.7032   29.4099    5.7848 C   0  0  0  0  0  0  0  0  0  0  0  0
   -5.1034   29.7598    5.3759 C   0  0  0  0  0  0  0  0  0  0  0  0
   -6.5035   30.1096    4.9670 C   0  0  0  0  0  0  0  0  0  0  0  0
    2.6838   31.4484    8.6137 H   0  0  0  0  0  0  0  0  0  0  0  0
    3.5665   29.0271    8.2851 H   0  0  0  0  0  0  0  0  0  0  0  0
   -2.5408   28.6712    6.0092 H   0  0  0  0  0  0  0  0  0  0  0  0
   -1.3824   25.9752    5.7087 H   0  0  0  0  0  0  0  0  0  0  0  0
   -4.2532   27.8819    5.1895 H   0  0  0  0  0  0  0  0  0  0  0  0
   -1.8690   25.2467    5.3394 H   0  0  0  0  0  0  0  0  0  0  0  0
   -4.6710   25.9451    4.5260 H   0  0  0  0  0  0  0  0  0  0  0  0
   -3.7106   22.7709    4.0245 H   0  0  0  0  0  0  0  0  0  0  0  0
   -4.8903   24.5333    4.0693 H   0  0  0  0  0  0  0  0  0  0  0  0
   -2.0903   23.8335    4.8879 H   0  0  0  0  0  0  0  0  0  0  0  0
    1.3977   26.7992    7.0182 H   0  0  0  0  0  0  0  0  0  0  0  0
   -1.1158   25.8672    5.6839 H   0  0  0  0  0  0  0  0  0  0  0  0
   -0.7556   24.7629    5.6166 H   0  0  0  0  0  0  0  0  0  0  0  0
   -0.5799   23.6143    5.3772 H   0  0  0  0  0  0  0  0  0  0  0  0
    0.7619   22.1238    5.4651 H   0  0  0  0  0  0  0  0  0  0  0  0
    1.7052   21.9177    5.7484 H   0  0  0  0  0  0  0  0  0  0  0  0
    3.3972   22.2821    6.4497 H   0  0  0  0  0  0  0  0  0  0  0  0
    4.7976   26.3897    8.0318 H   0  0  0  0  0  0  0  0  0  0  0  0
    2.6749   26.6330    7.3363 H   0  0  0  0  0  0  0  0  0  0  0  0
    5.8959   23.5190    7.6693 H   0  0  0  0  0  0  0  0  0  0  0  0
    5.5458   25.8078    8.1463 H   0  0  0  0  0  0  0  0  0  0  0  0
    5.0631   22.4185    7.0817 H   0  0  0  0  0  0  0  0  0  0  0  0
    2.5065   21.1900    5.8432 H   0  0  0  0  0  0  0  0  0  0  0  0
    4.3414   21.4459    6.5637 H   0  0  0  0  0  0  0  0  0  0  0  0
    1.8776   23.0563    6.1134 H   0  0  0  0  0  0  0  0  0  0  0  0
    1.2546   26.9243    6.9047 H   0  0  0  0  0  0  0  0  0  0  0  0
    4.0957   28.1891    8.2542 H   0  0  0  0  0  0  0  0  0  0  0  0
    5.7277   26.7647    8.4633 H   0  0  0  0  0  0  0  0  0  0  0  0
    3.6339   23.9856    6.9827 H   0  0  0  0  0  0  0  0  0  0  0  0
    6.7469   24.2289    8.1606 H   0  0  0  0  0  0  0  0  0  0  0  0
    6.1842   25.8174    8.3773 H   0  0  0  0  0  0  0  0  0  0  0  0
    5.0289   23.3231    7.3075 H   0  0  0  0  0  0  0  0  0  0  0  0
    0.2051   30.0099    7.3412 H   0  0  0  0  0  0  0  0  0  0  0  0
   -2.9889   31.3446    6.5496 H   0  0  0  0  0  0  0  0  0  0  0  0
   -0.0585   32.4894    7.8994 H   0  0  0  0  0  0  0  0  0  0  0  0
   -2.1398   32.3273    7.5232 H   0  0  0  0  0  0  0  0  0  0  0  0
    0.3393   30.6878    7.1595 H   0  0  0  0  0  0  0  0  0  0  0  0
   -2.6216   27.6747    5.7152 H   0  0  0  0  0  0  0  0  0  0  0  0
   -4.0969   28.0474    5.2965 H   0  0  0  0  0  0  0  0  0  0  0  0
   -3.6509   30.8578    6.1735 H   0  0  0  0  0  0  0  0  0  0  0  0
   -4.8822   31.1730    5.8276 H   0  0  0  0  0  0  0  0  0  0  0  0
   -5.3245   28.3466    4.9243 H   0  0  0  0  0  0  0  0  0  0  0  0
   -7.9037   30.4593    4.5580 H   0  0  0  0  0  0  0  0  0  0  0  0
   -6.6325   28.7847    4.2756 H   0  0  0  0  0  0  0  0  0  0  0  0
   -6.3744   31.4345    5.6584 H   0  0  0  0  0  0  0  0  0  0  0  0
  1  2  2  3
  2  3  1  0
  3  4  2  0
  3  5  1  0
  5  6  1  0
  6  7  1  0
  7  8  1  0
  8  9  1  0
  5 10  1  0
 10 11  1  0
 11 12  1  0
 12 13  1  0
 13 14  1  0
 14 15  1  0
 15 16  1  0
 16 17  1  0
 17 18  1  0
 14 19  1  0
 19 20  1  0
 20 21  1  0
 20 22  1  0
 22 23  1  0
 23 24  1  0
  5 25  1  0
 25 26  1  0
 26 27  1  0
 26 28  1  0
 28 29  1  0
 29 30  1  0
 30 31  1  0
 19 11  1  0
 23 20  1  0
 28 25  1  0
 17 14  1  0
  1 32  1  0
  1 33  1  0
  6 34  1  0
  6 35  1  0
  7 36  1  0
  8 37  1  0
  8 38  1  0
  9 39  1  0
  9 40  1  0
  9 41  1  0
 10 42  1  0
 10 43  1  0
 11 44  1  0
 12 45  1  0
 12 46  1  0
 13 47  1  0
 13 48  1  0
 15 49  1  0
 15 50  1  0
 16 51  1  0
 16 52  1  0
 17 53  1  0
 18 54  1  0
 18 55  1  0
 18 56  1  0
 19 57  1  0
 22 58  1  0
 22 59  1  0
 23 60  1  0
 24 61  1  0
 24 62  1  0
 24 63  1  0
 25 64  1  0
 26 65  1  0
 27 66  1  0
 27 67  1  0
 27 68  1  0
 28 69  1  0
 29 70  1  0
 29 71  1  0
 30 72  1  0
 30 73  1  0
 31 74  1  0
 31 75  1  0
 31 76  1  0
M  END
