
     RDKit          2D

 27 27  0  0  0  0  0  0  0  0999 V2000
   -1.3077   22.5198    5.2885 O   0  0  0  0  0  0  0  0  0  0  0  0
   -1.5900   23.5999    4.2868 C   0  0  0  0  0  0  0  0  0  0  0  0
   -0.1850   23.4909    3.7731 C   0  0  0  0  0  0  0  0  0  0  0  0
    1.2201   23.3818    3.2595 C   0  0  0  0  0  0  0  0  0  0  0  0
    2.6253   23.2727    2.7459 C   0  0  0  0  0  0  0  0  0  0  0  0
    2.9076   22.1927    3.7478 C   0  0  0  0  0  0  0  0  0  0  0  0
    1.5026   22.3018    4.2614 C   0  0  0  0  0  0  0  0  0  0  0  0
   -2.9951   23.7090    4.8003 N   0  0  0  0  0  0  0  0  0  0  0  0
   -3.9423   24.6988    4.1894 C   0  0  0  0  0  0  0  0  0  0  0  0
   -4.8895   25.6885    3.5785 C   0  0  0  0  0  0  0  0  0  0  0  0
   -5.8366   26.6782    2.9676 Cl  0  0  0  0  0  0  0  0  0  0  0  0
   -2.3148   22.2034    6.3542 H   0  0  0  0  0  0  0  0  0  0  0  0
   -1.8724   24.6801    3.2849 H   0  0  0  0  0  0  0  0  0  0  0  0
   -0.4672   24.5712    2.7716 H   0  0  0  0  0  0  0  0  0  0  0  0
   -0.1207   22.8655    4.3971 H   0  0  0  0  0  0  0  0  0  0  0  0
    0.9377   24.4618    2.2576 H   0  0  0  0  0  0  0  0  0  0  0  0
    2.3429   24.3528    1.7440 H   0  0  0  0  0  0  0  0  0  0  0  0
    4.0303   23.1637    2.2322 H   0  0  0  0  0  0  0  0  0  0  0  0
    4.3128   22.0836    3.2342 H   0  0  0  0  0  0  0  0  0  0  0  0
    3.1901   21.1127    4.7497 H   0  0  0  0  0  0  0  0  0  0  0  0
    1.7849   21.2217    5.2633 H   0  0  0  0  0  0  0  0  0  0  0  0
    0.6994   22.2879    4.6346 H   0  0  0  0  0  0  0  0  0  0  0  0
   -3.4531   22.8283    5.9249 H   0  0  0  0  0  0  0  0  0  0  0  0
   -2.8024   25.3316    3.4476 H   0  0  0  0  0  0  0  0  0  0  0  0
   -5.0821   24.0659    4.9313 H   0  0  0  0  0  0  0  0  0  0  0  0
   -3.8117   26.1391    2.6376 H   0  0  0  0  0  0  0  0  0  0  0  0
   -5.9673   25.2379    4.5194 H   0  0  0  0  0  0  0  0  0  0  0  0
  1  2  1  0
  2  3  1  0
  3  4  1  0
  4  5  1  0
  5  6  1  0
  6  7  1  0
  2  8  1  0
  8  9  1  0
  9 10  1  0
 10 11  1  0
  7  4  1  0
  1 12  1  0
  2 13  1  0
  3 14  1  0
  3 15  1  0
  4 16  1  0
  5 17  1  0
  5 18  1  0
  6 19  1  0
  6 20  1  0
  7 21  1  0
  7 22  1  0
  8 23  1  0
  9 24  1  0
  9 25  1  0
 10 26  1  0
 10 27  1  0
M  END
