
     RDKit          2D

 22 22  0  0  0  0  0  0  0  0999 V2000
   19.3363  -20.3077  -11.8640 C   0  0  0  0  0  0  0  0  0  0  0  0
   18.9843  -21.2406  -10.7434 C   0  0  0  0  0  0  0  0  0  0  0  0
   18.6323  -22.1735   -9.6226 C   0  0  0  0  0  0  0  0  0  0  0  0
   17.4285  -21.9011   -8.7702 C   0  0  0  0  0  0  0  0  0  0  0  0
   17.0766  -22.8339   -7.6495 C   0  0  0  0  0  0  0  0  0  0  0  0
   16.7246  -23.7668   -6.5288 O   0  0  0  0  0  0  0  0  0  0  0  0
   15.5383  -22.9132   -6.1909 C   0  0  0  0  0  0  0  0  0  0  0  0
   15.1863  -23.8461   -5.0702 O   0  0  0  0  0  0  0  0  0  0  0  0
   15.8903  -21.9803   -7.3116 C   0  0  0  0  0  0  0  0  0  0  0  0
   14.7040  -21.1268   -6.9736 O   0  0  0  0  0  0  0  0  0  0  0  0
   19.6883  -19.3749  -12.9847 H   0  0  0  0  0  0  0  0  0  0  0  0
   18.1494  -19.4548  -11.5268 H   0  0  0  0  0  0  0  0  0  0  0  0
   20.5232  -21.1607  -12.2013 H   0  0  0  0  0  0  0  0  0  0  0  0
   20.1741  -22.0908  -11.0773 H   0  0  0  0  0  0  0  0  0  0  0  0
   17.7945  -20.3904  -10.4093 H   0  0  0  0  0  0  0  0  0  0  0  0
   19.4841  -23.3787   -9.3544 H   0  0  0  0  0  0  0  0  0  0  0  0
   16.6925  -20.6584   -9.1753 H   0  0  0  0  0  0  0  0  0  0  0  0
   18.2628  -23.6876   -7.9874 H   0  0  0  0  0  0  0  0  0  0  0  0
   14.3520  -22.0596   -5.8530 H   0  0  0  0  0  0  0  0  0  0  0  0
   13.9822  -23.5740   -4.2182 H   0  0  0  0  0  0  0  0  0  0  0  0
   16.0951  -20.9504   -8.3827 H   0  0  0  0  0  0  0  0  0  0  0  0
   14.4157  -19.8922   -7.7753 H   0  0  0  0  0  0  0  0  0  0  0  0
  1  2  1  0
  2  3  1  0
  3  4  2  3
  4  5  1  0
  5  6  1  0
  6  7  1  0
  7  8  1  0
  7  9  1  0
  9 10  1  0
  9  5  1  0
  1 11  1  0
  1 12  1  0
  1 13  1  0
  2 14  1  0
  2 15  1  0
  3 16  1  0
  4 17  1  0
  5 18  1  6
  7 19  1  6
  8 20  1  0
  9 21  1  1
 10 22  1  0
M  END
