
     RDKit          2D

 65 67  0  0  0  0  0  0  0  0999 V2000
   -3.2331   28.5292   -2.0228 C   0  0  0  0  0  0  0  0  0  0  0  0
   -4.5583   28.3415   -1.3455 C   0  0  0  0  0  0  0  0  0  0  0  0
   -4.6579   27.4889   -0.1154 C   0  0  0  0  0  0  0  0  0  0  0  0
   -3.4321   26.8240    0.4375 C   0  0  0  0  0  0  0  0  0  0  0  0
   -2.2065   26.1592    0.9904 C   0  0  0  0  0  0  0  0  0  0  0  0
   -0.9808   25.4944    1.5433 C   0  0  0  0  0  0  0  0  0  0  0  0
    0.2448   24.8295    2.0963 C   0  0  0  0  0  0  0  0  0  0  0  0
   -0.8203   24.4330    3.0752 C   0  0  0  0  0  0  0  0  0  0  0  0
   -2.2200   24.4109    3.6141 O   0  0  0  0  0  0  0  0  0  0  0  0
   -0.6916   23.5819    4.3036 C   0  0  0  0  0  0  0  0  0  0  0  0
    0.5340   22.9171    4.8565 C   0  0  0  0  0  0  0  0  0  0  0  0
    1.9337   22.9391    4.3176 C   0  0  0  0  0  0  0  0  0  0  0  0
    0.8067   23.6623    3.6416 C   0  0  0  0  0  0  0  0  0  0  0  0
    1.7517   24.1428    2.5803 C   0  0  0  0  0  0  0  0  0  0  0  0
    2.8786   23.4196    3.2563 C   0  0  0  0  0  0  0  0  0  0  0  0
    4.0055   22.6964    3.9324 C   0  0  0  0  0  0  0  0  0  0  0  0
    5.1325   21.9732    4.6083 C   0  0  0  0  0  0  0  0  0  0  0  0
    3.0607   22.2159    4.9936 C   0  0  0  0  0  0  0  0  0  0  0  0
   -4.2500   26.2444    1.5534 C   0  0  0  0  0  0  0  0  0  0  0  0
   -5.0679   25.6649    2.6692 C   0  0  0  0  0  0  0  0  0  0  0  0
   -5.8859   25.0854    3.7852 C   0  0  0  0  0  0  0  0  0  0  0  0
   -3.0232   25.5853    2.1104 C   0  0  0  0  0  0  0  0  0  0  0  0
   -1.7962   24.9262    2.6673 C   0  0  0  0  0  0  0  0  0  0  0  0
   -0.5693   24.2670    3.2244 C   0  0  0  0  0  0  0  0  0  0  0  0
    0.6576   23.6079    3.7813 C   0  0  0  0  0  0  0  0  0  0  0  0
   -1.9079   28.7169   -2.6999 H   0  0  0  0  0  0  0  0  0  0  0  0
   -3.8831   29.4060   -3.0516 H   0  0  0  0  0  0  0  0  0  0  0  0
   -2.5797   27.8428   -1.2625 H   0  0  0  0  0  0  0  0  0  0  0  0
   -5.7840   29.0063   -1.8984 H   0  0  0  0  0  0  0  0  0  0  0  0
   -5.9856   27.7100   -0.0124 H   0  0  0  0  0  0  0  0  0  0  0  0
   -2.6536   27.2244   -0.4050 H   0  0  0  0  0  0  0  0  0  0  0  0
   -3.0189   25.6023    2.1217 H   0  0  0  0  0  0  0  0  0  0  0  0
   -1.2507   26.6310   -0.0650 H   0  0  0  0  0  0  0  0  0  0  0  0
   -1.4889   25.2430    2.1039 H   0  0  0  0  0  0  0  0  0  0  0  0
   -0.1681   26.0524    0.4129 H   0  0  0  0  0  0  0  0  0  0  0  0
    0.7645   25.5219    0.8713 H   0  0  0  0  0  0  0  0  0  0  0  0
   -1.2987   24.8629    2.6042 H   0  0  0  0  0  0  0  0  0  0  0  0
   -3.3109   25.1516    2.8989 H   0  0  0  0  0  0  0  0  0  0  0  0
   -1.9558   23.3672    5.0820 H   0  0  0  0  0  0  0  0  0  0  0  0
    0.3335   22.1255    6.1148 H   0  0  0  0  0  0  0  0  0  0  0  0
   -0.5154   24.2478    3.2425 H   0  0  0  0  0  0  0  0  0  0  0  0
   -0.5568   23.5777    4.2612 H   0  0  0  0  0  0  0  0  0  0  0  0
    1.6229   24.9939    1.3519 H   0  0  0  0  0  0  0  0  0  0  0  0
    3.8235   23.9001    2.1951 H   0  0  0  0  0  0  0  0  0  0  0  0
    4.9505   23.1769    2.8711 H   0  0  0  0  0  0  0  0  0  0  0  0
    6.2594   21.2500    5.2844 H   0  0  0  0  0  0  0  0  0  0  0  0
    6.0773   22.4531    3.5468 H   0  0  0  0  0  0  0  0  0  0  0  0
    4.3321   21.4086    5.7445 H   0  0  0  0  0  0  0  0  0  0  0  0
    2.1157   21.7354    6.0549 H   0  0  0  0  0  0  0  0  0  0  0  0
    4.0640   21.4395    5.7940 H   0  0  0  0  0  0  0  0  0  0  0  0
   -5.5675   26.8280    1.1366 H   0  0  0  0  0  0  0  0  0  0  0  0
   -3.9523   24.9296    3.3509 H   0  0  0  0  0  0  0  0  0  0  0  0
   -6.2924   26.3346    2.1195 H   0  0  0  0  0  0  0  0  0  0  0  0
   -6.7038   24.5058    4.9010 H   0  0  0  0  0  0  0  0  0  0  0  0
   -7.1119   25.7482    3.2307 H   0  0  0  0  0  0  0  0  0  0  0  0
   -4.6598   24.4225    4.3396 H   0  0  0  0  0  0  0  0  0  0  0  0
   -3.6857   24.9283    3.2848 H   0  0  0  0  0  0  0  0  0  0  0  0
   -1.9323   25.9896    1.1634 H   0  0  0  0  0  0  0  0  0  0  0  0
   -0.9787   25.5042    1.5504 H   0  0  0  0  0  0  0  0  0  0  0  0
   -2.6137   24.3482    3.7843 H   0  0  0  0  0  0  0  0  0  0  0  0
   -1.3868   23.6891    4.3413 H   0  0  0  0  0  0  0  0  0  0  0  0
    0.2483   24.8450    2.1073 H   0  0  0  0  0  0  0  0  0  0  0  0
    1.8845   22.9487    4.3383 H   0  0  0  0  0  0  0  0  0  0  0  0
    1.4771   24.1946    2.6704 H   0  0  0  0  0  0  0  0  0  0  0  0
   -0.1619   23.0211    4.8922 H   0  0  0  0  0  0  0  0  0  0  0  0
  1  2  1  0
  2  3  2  3
  3  4  1  0
  4  5  1  0
  5  6  1  0
  6  7  1  0
  7  8  1  0
  8  9  1  0
  8 10  1  0
 10 11  2  0
 11 12  1  0
 12 13  1  0
 13 14  1  0
 14 15  1  0
 15 16  1  0
 16 17  1  0
 16 18  1  0
  4 19  1  0
 19 20  1  0
 20 21  1  0
 19 22  1  0
 22 23  1  0
 23 24  1  0
 24 25  1  0
 14  7  1  0
 15 12  1  0
 12 18  1  1
  1 26  1  0
  1 27  1  0
  1 28  1  0
  2 29  1  0
  3 30  1  0
  4 31  1  1
  5 32  1  0
  5 33  1  0
  6 34  1  0
  6 35  1  0
  7 36  1  1
  8 37  1  6
  9 38  1  0
 10 39  1  0
 11 40  1  0
 13 41  1  0
 13 42  1  0
 14 43  1  1
 15 44  1  6
 16 45  1  1
 17 46  1  0
 17 47  1  0
 17 48  1  0
 18 49  1  0
 18 50  1  0
 19 51  1  1
 20 52  1  0
 20 53  1  0
 21 54  1  0
 21 55  1  0
 21 56  1  0
 22 57  1  0
 22 58  1  0
 23 59  1  0
 23 60  1  0
 24 61  1  0
 24 62  1  0
 25 63  1  0
 25 64  1  0
 25 65  1  0
M  END
