
     RDKit          2D

 95107  0  0  0  0  0  0  0  0999 V2000
   13.2499  -24.7562   -4.4350 C   0  0  0  0  0  0  0  0  0  0  0  0
   13.5325  -24.5788   -5.8974 C   0  0  0  0  0  0  0  0  0  0  0  0
   13.1798  -25.6677   -6.8670 C   0  0  0  0  0  0  0  0  0  0  0  0
   12.8271  -26.7566   -7.8365 C   0  0  0  0  0  0  0  0  0  0  0  0
   11.9351  -27.3844   -6.8068 C   0  0  0  0  0  0  0  0  0  0  0  0
   12.4744  -27.8455   -8.8060 C   0  0  0  0  0  0  0  0  0  0  0  0
   13.3664  -27.2177   -9.8356 C   0  0  0  0  0  0  0  0  0  0  0  0
   13.7191  -26.1287   -8.8661 C   0  0  0  0  0  0  0  0  0  0  0  0
   14.3153  -26.1296  -10.2425 C   0  0  0  0  0  0  0  0  0  0  0  0
   14.6967  -26.4555  -11.6561 C   0  0  0  0  0  0  0  0  0  0  0  0
   15.4670  -26.1310  -12.9016 C   0  0  0  0  0  0  0  0  0  0  0  0
   15.5768  -25.2416  -11.6987 C   0  0  0  0  0  0  0  0  0  0  0  0
   16.1483  -24.0274  -11.0288 C   0  0  0  0  0  0  0  0  0  0  0  0
   16.4219  -22.9973   -9.9732 C   0  0  0  0  0  0  0  0  0  0  0  0
   17.1557  -21.7409   -9.6085 C   0  0  0  0  0  0  0  0  0  0  0  0
   18.7351  -18.3797   -7.7479 C   0  0  0  0  0  0  0  0  0  0  0  0
   19.3263  -18.3886   -9.1264 C   0  0  0  0  0  0  0  0  0  0  0  0
   19.4607  -19.0249  -10.4782 O   0  0  0  0  0  0  0  0  0  0  0  0
   18.5109  -20.1089  -10.0624 C   0  0  0  0  0  0  0  0  0  0  0  0
   18.9985  -20.2819  -11.4703 C   0  0  0  0  0  0  0  0  0  0  0  0
   19.4860  -20.4548  -12.8782 C   0  0  0  0  0  0  0  0  0  0  0  0
   20.4452  -19.4631  -13.4670 C   0  0  0  0  0  0  0  0  0  0  0  0
   20.9328  -19.6361  -14.8749 C   0  0  0  0  0  0  0  0  0  0  0  0
   21.4204  -19.8090  -16.2829 C   0  0  0  0  0  0  0  0  0  0  0  0
   21.9080  -19.9820  -17.6908 C   0  0  0  0  0  0  0  0  0  0  0  0
   23.2804  -20.5304  -17.9473 C   0  0  0  0  0  0  0  0  0  0  0  0
   21.0231  -19.6065  -18.8424 C   0  0  0  0  0  0  0  0  0  0  0  0
   20.1382  -19.2311  -19.9940 C   0  0  0  0  0  0  0  0  0  0  0  0
   19.2534  -18.8556  -21.1455 C   0  0  0  0  0  0  0  0  0  0  0  0
   20.7066  -17.8429  -19.9781 O   0  0  0  0  0  0  0  0  0  0  0  0
   18.3765  -19.4727   -8.7106 C   0  0  0  0  0  0  0  0  0  0  0  0
   17.6099  -19.7893   -7.4607 C   0  0  0  0  0  0  0  0  0  0  0  0
   16.6602  -20.8733   -7.0450 C   0  0  0  0  0  0  0  0  0  0  0  0
   16.0837  -22.0897   -7.7068 C   0  0  0  0  0  0  0  0  0  0  0  0
   15.3284  -23.3465   -8.0225 C   0  0  0  0  0  0  0  0  0  0  0  0
   15.4627  -23.9828   -9.3742 C   0  0  0  0  0  0  0  0  0  0  0  0
   16.2180  -22.7259   -9.0584 C   0  0  0  0  0  0  0  0  0  0  0  0
   16.9846  -22.4093  -10.3083 C   0  0  0  0  0  0  0  0  0  0  0  0
   17.5758  -22.4182  -11.6868 C   0  0  0  0  0  0  0  0  0  0  0  0
   18.5256  -21.3343  -12.1027 C   0  0  0  0  0  0  0  0  0  0  0  0
   17.9343  -21.3253  -10.7241 C   0  0  0  0  0  0  0  0  0  0  0  0
   15.1954  -24.9156  -10.2851 C   0  0  0  0  0  0  0  0  0  0  0  0
   15.0548  -24.2865   -8.9307 C   0  0  0  0  0  0  0  0  0  0  0  0
   13.6026  -23.6673   -3.4655 H   0  0  0  0  0  0  0  0  0  0  0  0
   12.6147  -26.0225   -3.9421 H   0  0  0  0  0  0  0  0  0  0  0  0
   14.1580  -23.3861   -6.5579 H   0  0  0  0  0  0  0  0  0  0  0  0
   13.7126  -24.8354   -7.9955 H   0  0  0  0  0  0  0  0  0  0  0  0
   12.6940  -26.3610   -5.6287 H   0  0  0  0  0  0  0  0  0  0  0  0
   11.0431  -28.0123   -5.7771 H   0  0  0  0  0  0  0  0  0  0  0  0
   11.4771  -28.5423   -7.6432 H   0  0  0  0  0  0  0  0  0  0  0  0
   12.1756  -26.3796   -5.7194 H   0  0  0  0  0  0  0  0  0  0  0  0
   11.5461  -28.6014   -7.9021 H   0  0  0  0  0  0  0  0  0  0  0  0
   12.1217  -28.9344   -9.7754 H   0  0  0  0  0  0  0  0  0  0  0  0
   13.2566  -28.1070  -11.0385 H   0  0  0  0  0  0  0  0  0  0  0  0
   14.2907  -24.9145   -8.1962 H   0  0  0  0  0  0  0  0  0  0  0  0
   13.9452  -27.7125  -11.9809 H   0  0  0  0  0  0  0  0  0  0  0  0
   15.0379  -27.2705  -13.7776 H   0  0  0  0  0  0  0  0  0  0  0  0
   16.3863  -25.4107  -13.8428 H   0  0  0  0  0  0  0  0  0  0  0  0
   16.9475  -23.6397  -12.2375 H   0  0  0  0  0  0  0  0  0  0  0  0
   16.9824  -23.0567  -11.3633 H   0  0  0  0  0  0  0  0  0  0  0  0
   17.8272  -21.6101  -10.9434 H   0  0  0  0  0  0  0  0  0  0  0  0
   18.1149  -20.7600  -10.2149 H   0  0  0  0  0  0  0  0  0  0  0  0
   18.6007  -17.7435   -6.3962 H   0  0  0  0  0  0  0  0  0  0  0  0
   20.2089  -17.1769   -9.1782 H   0  0  0  0  0  0  0  0  0  0  0  0
   18.3145  -21.5313  -11.9404 H   0  0  0  0  0  0  0  0  0  0  0  0
   19.8250  -19.0373  -11.3369 H   0  0  0  0  0  0  0  0  0  0  0  0
   19.1198  -21.5532  -13.8319 H   0  0  0  0  0  0  0  0  0  0  0  0
   20.9168  -18.2985  -12.6477 H   0  0  0  0  0  0  0  0  0  0  0  0
   21.9909  -20.5833  -14.3921 H   0  0  0  0  0  0  0  0  0  0  0  0
   19.8747  -18.6888  -15.3577 H   0  0  0  0  0  0  0  0  0  0  0  0
   22.5700  -20.6330  -15.7835 H   0  0  0  0  0  0  0  0  0  0  0  0
   20.2707  -18.9851  -16.7822 H   0  0  0  0  0  0  0  0  0  0  0  0
   23.7680  -20.7033  -19.3552 H   0  0  0  0  0  0  0  0  0  0  0  0
   24.1652  -20.9059  -16.7957 H   0  0  0  0  0  0  0  0  0  0  0  0
   20.2791  -20.9004  -18.6926 H   0  0  0  0  0  0  0  0  0  0  0  0
   21.7671  -18.3126  -18.9922 H   0  0  0  0  0  0  0  0  0  0  0  0
   19.5699  -20.6192  -20.0099 H   0  0  0  0  0  0  0  0  0  0  0  0
   18.3686  -18.4802  -22.2971 H   0  0  0  0  0  0  0  0  0  0  0  0
   18.7045  -20.2512  -21.1789 H   0  0  0  0  0  0  0  0  0  0  0  0
   19.6903  -17.4247  -21.2529 H   0  0  0  0  0  0  0  0  0  0  0  0
   22.1333  -17.4545  -19.7261 H   0  0  0  0  0  0  0  0  0  0  0  0
   17.3448  -19.3101   -6.0643 H   0  0  0  0  0  0  0  0  0  0  0  0
   18.1998  -18.5676   -6.8208 H   0  0  0  0  0  0  0  0  0  0  0  0
   15.7705  -21.4940   -6.0090 H   0  0  0  0  0  0  0  0  0  0  0  0
   16.6593  -20.0924   -5.7642 H   0  0  0  0  0  0  0  0  0  0  0  0
   15.3989  -22.2449   -6.3812 H   0  0  0  0  0  0  0  0  0  0  0  0
   14.4387  -23.9673   -6.9866 H   0  0  0  0  0  0  0  0  0  0  0  0
   14.8995  -25.1935  -10.0576 H   0  0  0  0  0  0  0  0  0  0  0  0
   17.9305  -21.3090  -10.6887 H   0  0  0  0  0  0  0  0  0  0  0  0
   17.3284  -23.4274  -12.7687 H   0  0  0  0  0  0  0  0  0  0  0  0
   18.7094  -21.9129  -13.4743 H   0  0  0  0  0  0  0  0  0  0  0  0
   19.4561  -20.1897  -12.3749 H   0  0  0  0  0  0  0  0  0  0  0  0
   14.5835  -24.0893   -7.5203 H   0  0  0  0  0  0  0  0  0  0  0  0
   14.1060  -25.3747   -8.5237 H   0  0  0  0  0  0  0  0  0  0  0  0
   15.8266  -23.0304   -8.6540 H   0  0  0  0  0  0  0  0  0  0  0  0
  1  2  2  3
  2  3  1  0
  4  3  1  6
  4  5  1  0
  4  6  1  0
  6  7  1  0
  7  8  1  0
  8  9  1  0
  9 10  1  0
 10 11  1  0
 12 11  1  6
 12 13  1  0
 13 14  1  0
 14 15  1  0
 15 16  1  0
 16 17  1  0
 17 18  1  0
 18 19  1  0
 19 20  1  6
 20 21  1  0
 21 22  2  3
 22 23  1  0
 23 24  1  0
 24 25  1  0
 25 26  2  3
 25 27  1  0
 27 28  1  0
 28 29  1  0
 28 30  1  0
 19 31  1  0
 31 32  1  6
 32 33  1  0
 33 34  1  0
 34 35  1  0
 35 36  1  0
 36 37  1  0
 37 38  1  0
 38 39  1  0
 39 40  1  0
 41 40  1  1
 13 42  1  0
 42 43  1  6
  8  4  1  0
  9 42  1  1
  9  7  1  0
 12 10  1  0
 36 14  1  0
 41 38  1  0
 42 12  1  0
 31 16  1  0
 37 34  1  1
 41 39  1  0
 31 17  1  0
 37 35  1  0
 41 19  1  0
  1 44  1  0
  1 45  1  0
  2 46  1  0
  3 47  1  0
  3 48  1  0
  5 49  1  0
  5 50  1  0
  5 51  1  0
  6 52  1  0
  6 53  1  0
  7 54  1  1
  8 55  1  1
 10 56  1  1
 11 57  1  0
 11 58  1  0
 13 59  1  6
 14 60  1  6
 15 61  1  0
 15 62  1  0
 16 63  1  1
 17 64  1  6
 20 65  1  0
 20 66  1  0
 21 67  1  0
 22 68  1  0
 23 69  1  0
 23 70  1  0
 24 71  1  0
 24 72  1  0
 26 73  1  0
 26 74  1  0
 27 75  1  0
 27 76  1  0
 28 77  1  6
 29 78  1  0
 29 79  1  0
 29 80  1  0
 30 81  1  0
 32 82  1  0
 32 83  1  0
 33 84  1  0
 33 85  1  0
 34 86  1  1
 35 87  1  6
 36 88  1  6
 38 89  1  1
 39 90  1  6
 40 91  1  0
 40 92  1  0
 43 93  1  0
 43 94  1  0
 43 95  1  0
M  END
