
     RDKit          2D

 24 23  0  0  0  0  0  0  0  0999 V2000
   13.7405  -24.1929  -12.1545 C   0  0  0  0  0  0  0  0  0  0  0  0
   14.1158  -22.9903  -11.3401 C   0  0  0  0  0  0  0  0  0  0  0  0
   14.4911  -21.7879  -10.5258 C   0  0  0  0  0  0  0  0  0  0  0  0
   13.9170  -21.6033   -9.1524 C   0  0  0  0  0  0  0  0  0  0  0  0
   14.2923  -20.4008   -8.3380 C   0  0  0  0  0  0  0  0  0  0  0  0
   14.6675  -19.1983   -7.5236 C   0  0  0  0  0  0  0  0  0  0  0  0
   15.0428  -17.9958   -6.7092 C   0  0  0  0  0  0  0  0  0  0  0  0
   15.4181  -16.7933   -5.8949 C   0  0  0  0  0  0  0  0  0  0  0  0
   14.6049  -15.5368   -5.9941 O   0  0  0  0  0  0  0  0  0  0  0  0
   16.6065  -16.8474   -4.9813 O   0  0  0  0  0  0  0  0  0  0  0  0
   13.3652  -25.3954  -12.9688 H   0  0  0  0  0  0  0  0  0  0  0  0
   14.8975  -24.9487  -11.5715 H   0  0  0  0  0  0  0  0  0  0  0  0
   12.5834  -23.4371  -12.7375 H   0  0  0  0  0  0  0  0  0  0  0  0
   15.2721  -23.7466  -10.7564 H   0  0  0  0  0  0  0  0  0  0  0  0
   12.9594  -22.2341  -11.9239 H   0  0  0  0  0  0  0  0  0  0  0  0
   15.4404  -20.7700  -11.0849 H   0  0  0  0  0  0  0  0  0  0  0  0
   12.9676  -22.6212   -8.5933 H   0  0  0  0  0  0  0  0  0  0  0  0
   15.4501  -21.1562   -7.7560 H   0  0  0  0  0  0  0  0  0  0  0  0
   13.1345  -19.6454   -8.9199 H   0  0  0  0  0  0  0  0  0  0  0  0
   13.5104  -18.4425   -8.1065 H   0  0  0  0  0  0  0  0  0  0  0  0
   15.8246  -19.9542   -6.9408 H   0  0  0  0  0  0  0  0  0  0  0  0
   13.8868  -17.2394   -7.2935 H   0  0  0  0  0  0  0  0  0  0  0  0
   16.1988  -18.7522   -6.1249 H   0  0  0  0  0  0  0  0  0  0  0  0
   16.9818  -15.6449   -4.1669 H   0  0  0  0  0  0  0  0  0  0  0  0
  1  2  1  0
  2  3  1  0
  3  4  2  3
  4  5  1  0
  5  6  1  0
  6  7  1  0
  7  8  1  0
  8  9  2  0
  8 10  1  0
  1 11  1  0
  1 12  1  0
  1 13  1  0
  2 14  1  0
  2 15  1  0
  3 16  1  0
  4 17  1  0
  5 18  1  0
  5 19  1  0
  6 20  1  0
  6 21  1  0
  7 22  1  0
  7 23  1  0
 10 24  1  0
M  END
