
     RDKit          2D

105115  0  0  0  0  0  0  0  0999 V2000
   22.3205  -22.3643  -13.2765 C   0  0  0  0  0  0  0  0  0  0  0  0
   22.4637  -22.2665  -11.7865 C   0  0  0  0  0  0  0  0  0  0  0  0
   22.6070  -22.1688  -10.2966 C   0  0  0  0  0  0  0  0  0  0  0  0
   21.0146  -21.8969  -11.6715 C   0  0  0  0  0  0  0  0  0  0  0  0
   19.9407  -21.4820  -10.7099 C   0  0  0  0  0  0  0  0  0  0  0  0
   18.4915  -21.1124  -10.5949 C   0  0  0  0  0  0  0  0  0  0  0  0
   17.2206  -20.9291  -11.3703 C   0  0  0  0  0  0  0  0  0  0  0  0
   16.9321  -20.6275   -9.9295 C   0  0  0  0  0  0  0  0  0  0  0  0
   16.6437  -20.3259   -8.4887 C   0  0  0  0  0  0  0  0  0  0  0  0
   16.3552  -20.0243   -7.0479 C   0  0  0  0  0  0  0  0  0  0  0  0
   16.0668  -19.7227   -5.6072 C   0  0  0  0  0  0  0  0  0  0  0  0
   15.7783  -19.4211   -4.1664 C   0  0  0  0  0  0  0  0  0  0  0  0
   15.4899  -19.1195   -2.7256 C   0  0  0  0  0  0  0  0  0  0  0  0
   14.1064  -18.7203   -2.3053 C   0  0  0  0  0  0  0  0  0  0  0  0
   15.2014  -18.8178   -1.2849 C   0  0  0  0  0  0  0  0  0  0  0  0
   15.6671  -18.7000    0.1361 C   0  0  0  0  0  0  0  0  0  0  0  0
   17.0505  -19.0991   -0.2842 C   0  0  0  0  0  0  0  0  0  0  0  0
   16.5849  -19.2170   -1.7052 C   0  0  0  0  0  0  0  0  0  0  0  0
   16.6134  -21.0023  -12.7400 C   0  0  0  0  0  0  0  0  0  0  0  0
   15.2307  -20.5998  -12.3202 C   0  0  0  0  0  0  0  0  0  0  0  0
   14.0906  -20.1819  -11.4397 C   0  0  0  0  0  0  0  0  0  0  0  0
   14.1365  -20.4989  -13.3412 C   0  0  0  0  0  0  0  0  0  0  0  0
   13.4877  -20.1323  -12.0393 P   0  0  0  0  0  0  0  0  0  0  0  0
   12.0318  -19.7734  -12.0018 Mg  0  0  0  0  0  2  0  0  0  0  0  0
   10.5758  -19.4146  -11.9642 O   0  0  0  0  0  0  0  0  0  0  0  0
   12.7064  -20.2082  -13.6884 C   0  0  0  0  0  0  0  0  0  0  0  0
   12.9950  -20.5098  -15.1291 C   0  0  0  0  0  0  0  0  0  0  0  0
   13.9597  -20.9163  -16.2033 C   0  0  0  0  0  0  0  0  0  0  0  0
   14.4250  -20.8005  -14.7820 C   0  0  0  0  0  0  0  0  0  0  0  0
   15.8076  -21.2030  -15.2017 C   0  0  0  0  0  0  0  0  0  0  0  0
   16.8579  -21.4079  -14.8932 Mg  0  0  0  0  0  2  0  0  0  0  0  0
   17.8667  -21.7105  -15.2549 C   0  0  0  0  0  0  0  0  0  0  0  0
   16.9412  -21.6424  -16.2257 C   0  0  0  0  0  0  0  0  0  0  0  0
   17.9758  -21.7188  -15.1422 C   0  0  0  0  0  0  0  0  0  0  0  0
   19.4250  -22.0884  -15.2573 C   0  0  0  0  0  0  0  0  0  0  0  0
   20.6959  -22.2717  -14.4820 C   0  0  0  0  0  0  0  0  0  0  0  0
   21.3030  -22.1985  -13.1123 C   0  0  0  0  0  0  0  0  0  0  0  0
   20.1975  -22.4729  -16.4842 C   0  0  0  0  0  0  0  0  0  0  0  0
   19.7117  -22.5828  -17.8991 C   0  0  0  0  0  0  0  0  0  0  0  0
   18.3333  -22.3352  -18.4365 C   0  0  0  0  0  0  0  0  0  0  0  0
   17.1003  -21.9167  -17.6918 N   0  0  0  0  0  0  0  0  0  0  0  0
   15.8628  -21.7506  -18.5230 C   0  0  0  0  0  0  0  0  0  0  0  0
   14.6253  -21.5844  -19.3543 C   0  0  0  0  0  0  0  0  0  0  0  0
   15.0901  -21.3669  -17.2960 O   0  0  0  0  0  0  0  0  0  0  0  0
   16.9019  -21.3039  -14.1807 C   0  0  0  0  0  0  0  0  0  0  0  0
   22.3538  -22.5109  -14.7689 H   0  0  0  0  0  0  0  0  0  0  0  0
   23.7601  -22.7707  -13.3883 H   0  0  0  0  0  0  0  0  0  0  0  0
   20.8891  -21.9936  -13.5286 H   0  0  0  0  0  0  0  0  0  0  0  0
   23.9130  -22.6362  -11.9016 H   0  0  0  0  0  0  0  0  0  0  0  0
   22.7502  -22.0710   -8.8066 H   0  0  0  0  0  0  0  0  0  0  0  0
   24.0321  -22.5301  -10.5940 H   0  0  0  0  0  0  0  0  0  0  0  0
   24.0671  -22.5063  -10.2308 H   0  0  0  0  0  0  0  0  0  0  0  0
   21.7789  -21.8746  -10.3810 H   0  0  0  0  0  0  0  0  0  0  0  0
   21.1148  -21.6180   -9.7864 H   0  0  0  0  0  0  0  0  0  0  0  0
   19.8287  -21.2181   -9.2376 H   0  0  0  0  0  0  0  0  0  0  0  0
   19.0987  -21.0392   -9.2253 H   0  0  0  0  0  0  0  0  0  0  0  0
   17.6884  -20.7239   -9.3890 H   0  0  0  0  0  0  0  0  0  0  0  0
   15.8026  -20.5382  -11.0760 H   0  0  0  0  0  0  0  0  0  0  0  0
   15.8249  -19.6170   -9.9848 H   0  0  0  0  0  0  0  0  0  0  0  0
   17.9582  -21.5498   -9.3406 H   0  0  0  0  0  0  0  0  0  0  0  0
   18.0730  -20.6199   -8.1411 H   0  0  0  0  0  0  0  0  0  0  0  0
   15.2145  -20.0320   -8.8364 H   0  0  0  0  0  0  0  0  0  0  0  0
   14.9257  -19.7314   -7.3954 H   0  0  0  0  0  0  0  0  0  0  0  0
   17.7847  -20.3172   -6.7005 H   0  0  0  0  0  0  0  0  0  0  0  0
   17.5155  -19.9244   -5.2749 H   0  0  0  0  0  0  0  0  0  0  0  0
   14.6180  -19.5210   -5.9395 H   0  0  0  0  0  0  0  0  0  0  0  0
   14.3352  -19.1895   -4.5038 H   0  0  0  0  0  0  0  0  0  0  0  0
   17.2215  -19.6526   -3.8290 H   0  0  0  0  0  0  0  0  0  0  0  0
   13.4075  -18.7671   -3.6318 H   0  0  0  0  0  0  0  0  0  0  0  0
   12.9655  -18.3050   -1.4244 H   0  0  0  0  0  0  0  0  0  0  0  0
   16.1328  -18.5822    1.5571 H   0  0  0  0  0  0  0  0  0  0  0  0
   14.2836  -18.3009    0.5565 H   0  0  0  0  0  0  0  0  0  0  0  0
   18.4341  -19.4982   -0.7044 H   0  0  0  0  0  0  0  0  0  0  0  0
   17.5163  -18.9813    1.1369 H   0  0  0  0  0  0  0  0  0  0  0  0
   17.8008  -19.6330   -2.4789 H   0  0  0  0  0  0  0  0  0  0  0  0
   15.3425  -20.8191  -13.5153 H   0  0  0  0  0  0  0  0  0  0  0  0
   15.5983  -20.4561  -10.8731 H   0  0  0  0  0  0  0  0  0  0  0  0
   12.9503  -19.7640  -10.5591 H   0  0  0  0  0  0  0  0  0  0  0  0
   15.0025  -20.2028  -10.2488 H   0  0  0  0  0  0  0  0  0  0  0  0
   12.8305  -20.0125  -12.2356 H   0  0  0  0  0  0  0  0  0  0  0  0
   13.8058  -19.9750  -10.5820 H   0  0  0  0  0  0  0  0  0  0  0  0
    9.7686  -19.4222  -13.2285 H   0  0  0  0  0  0  0  0  0  0  0  0
   11.2764  -19.9175  -14.0355 H   0  0  0  0  0  0  0  0  0  0  0  0
   11.9246  -19.8224  -12.4678 H   0  0  0  0  0  0  0  0  0  0  0  0
   11.6883  -20.3071  -15.8374 H   0  0  0  0  0  0  0  0  0  0  0  0
   12.9175  -20.8368  -17.2792 H   0  0  0  0  0  0  0  0  0  0  0  0
   15.3162  -21.3244  -16.6968 H   0  0  0  0  0  0  0  0  0  0  0  0
   14.7304  -21.1092  -16.2413 H   0  0  0  0  0  0  0  0  0  0  0  0
   19.2573  -22.1109  -15.6499 H   0  0  0  0  0  0  0  0  0  0  0  0
   15.6351  -21.2278  -15.6155 H   0  0  0  0  0  0  0  0  0  0  0  0
   16.5674  -21.4483  -15.5821 H   0  0  0  0  0  0  0  0  0  0  0  0
   20.7840  -22.4960  -15.7440 H   0  0  0  0  0  0  0  0  0  0  0  0
   21.3218  -22.6347  -15.7959 H   0  0  0  0  0  0  0  0  0  0  0  0
   22.1138  -22.6626  -14.7763 H   0  0  0  0  0  0  0  0  0  0  0  0
   22.6687  -22.6049  -13.5814 H   0  0  0  0  0  0  0  0  0  0  0  0
   21.6562  -22.8206  -16.4480 H   0  0  0  0  0  0  0  0  0  0  0  0
   21.1608  -22.9524  -18.0141 H   0  0  0  0  0  0  0  0  0  0  0  0
   20.0463  -22.8937  -19.3279 H   0  0  0  0  0  0  0  0  0  0  0  0
   18.9492  -22.6966  -19.7556 H   0  0  0  0  0  0  0  0  0  0  0  0
   17.4318  -22.3096  -19.6352 H   0  0  0  0  0  0  0  0  0  0  0  0
   16.4789  -22.1111  -19.8423 H   0  0  0  0  0  0  0  0  0  0  0  0
   13.3878  -21.4182  -20.1856 H   0  0  0  0  0  0  0  0  0  0  0  0
   15.4472  -21.7100  -20.6028 H   0  0  0  0  0  0  0  0  0  0  0  0
   13.6588  -21.4394  -18.2164 H   0  0  0  0  0  0  0  0  0  0  0  0
   13.6320  -21.0311  -17.4024 H   0  0  0  0  0  0  0  0  0  0  0  0
  1  2  1  0
  2  3  1  0
  2  4  1  0
  4  5  1  0
  5  6  1  0
  6  7  1  0
  7  8  1  0
  8  9  1  0
  9 10  1  0
 10 11  1  0
 11 12  1  0
 12 13  1  0
 13 14  1  0
 14 15  1  0
 15 16  1  0
 16 17  1  0
 17 18  1  0
  7 19  1  0
 19 20  1  0
 20 21  1  0
 20 22  1  0
 22 23  1  0
 23 24  1  0
 24 25  1  0
 22 26  1  0
 26 27  1  0
 27 28  1  0
 28 29  1  0
 29 30  1  0
 30 31  1  0
 31 32  1  0
 32 33  1  0
 33 34  1  0
 34 35  1  0
 35 36  1  0
 36 37  1  0
 37 38  1  0
 38 39  1  0
 39 40  1  0
 40 41  1  0
 41 42  1  0
 42 43  1  0
 42 44  1  0
 34 45  1  0
 37  4  1  0
 15 13  1  0
 45 19  1  0
 18 13  1  0
 29 22  1  0
 45 30  1  0
 18 15  1  0
 29 27  1  0
 45 32  1  0
 41 33  1  0
 38 35  1  0
  1 46  1  0
  1 47  1  0
  1 48  1  0
  2 49  1  0
  3 50  1  0
  3 51  1  0
  3 52  1  0
  4 53  1  0
  5 54  1  0
  5 55  1  0
  6 56  1  0
  6 57  1  0
  7 58  1  0
  8 59  1  0
  8 60  1  0
  9 61  1  0
  9 62  1  0
 10 63  1  0
 10 64  1  0
 11 65  1  0
 11 66  1  0
 12 67  1  0
 12 68  1  0
 14 69  1  0
 14 70  1  0
 16 71  1  0
 16 72  1  0
 17 73  1  0
 17 74  1  0
 18 75  1  0
 19 76  1  0
 20 77  1  0
 21 78  1  0
 21 79  1  0
 21 80  1  0
 23 81  1  0
 25 82  1  0
 26 83  1  0
 26 84  1  0
 27 85  1  0
 28 86  1  0
 28 87  1  0
 30 88  1  0
 32 89  1  0
 33 90  1  0
 34 91  1  0
 35 92  1  0
 36 93  1  0
 36 94  1  0
 37 95  1  0
 38 96  1  0
 39 97  1  0
 39 98  1  0
 40 99  1  0
 40100  1  0
 42101  1  0
 43102  1  0
 43103  1  0
 43104  1  0
 44105  1  0
M  END
