
     RDKit          2D

 29 33  0  0  0  0  0  0  0  0999 V2000
   -4.4115   29.7594    3.9939 C   0  0  0  0  0  0  0  0  0  0  0  0
   -3.9488   29.1115    5.2652 B   0  0  0  0  0  0  0  0  0  0  0  0
   -2.7291   28.2384    5.2613 N   0  0  0  0  0  0  0  0  0  0  0  0
   -2.2664   27.5905    6.5326 C   0  0  0  0  0  0  0  0  0  0  0  0
   -3.4077   28.2246    7.2711 N   0  0  0  0  0  0  0  0  0  0  0  0
   -2.4364   27.3465    8.0028 C   0  0  0  0  0  0  0  0  0  0  0  0
   -1.4650   26.4683    8.7345 C   0  0  0  0  0  0  0  0  0  0  0  0
   -0.3237   25.8343    7.9960 C   0  0  0  0  0  0  0  0  0  0  0  0
   -0.1537   26.0784    6.5258 C   0  0  0  0  0  0  0  0  0  0  0  0
    0.6033   25.8532    5.2506 C   0  0  0  0  0  0  0  0  0  0  0  0
   -0.3680   26.7313    4.5189 N   0  0  0  0  0  0  0  0  0  0  0  0
   -0.5196   27.1930    3.0998 C   0  0  0  0  0  0  0  0  0  0  0  0
   -1.1251   26.9565    5.7941 C   0  0  0  0  0  0  0  0  0  0  0  0
   -0.4937   25.5902    9.4662 N   0  0  0  0  0  0  0  0  0  0  0  0
   -4.8742   30.4073    2.7226 H   0  0  0  0  0  0  0  0  0  0  0  0
   -5.5545   30.3910    4.7318 H   0  0  0  0  0  0  0  0  0  0  0  0
   -3.2684   29.1277    3.2560 H   0  0  0  0  0  0  0  0  0  0  0  0
   -4.8186   29.4420    6.4417 H   0  0  0  0  0  0  0  0  0  0  0  0
   -2.2295   28.2324    3.8469 H   0  0  0  0  0  0  0  0  0  0  0  0
   -4.6390   29.0614    7.4541 H   0  0  0  0  0  0  0  0  0  0  0  0
   -3.1935   27.5716    9.2779 H   0  0  0  0  0  0  0  0  0  0  0  0
   -0.9498   26.2394    8.1710 H   0  0  0  0  0  0  0  0  0  0  0  0
    0.8960   24.9612    7.9921 H   0  0  0  0  0  0  0  0  0  0  0  0
    0.9805   25.1719    6.9025 H   0  0  0  0  0  0  0  0  0  0  0  0
    1.8255   25.0731    4.8662 H   0  0  0  0  0  0  0  0  0  0  0  0
   -0.6711   27.6547    1.6806 H   0  0  0  0  0  0  0  0  0  0  0  0
    0.7041   26.4150    2.7159 H   0  0  0  0  0  0  0  0  0  0  0  0
   -1.7526   28.0216    3.3077 H   0  0  0  0  0  0  0  0  0  0  0  0
   -1.7421   27.6863    4.6379 H   0  0  0  0  0  0  0  0  0  0  0  0
  1  2  1  0
  2  3  1  0
  3  4  1  0
  4  5  1  0
  5  6  1  0
  6  7  1  0
  7  8  1  0
  8  9  1  0
  9 10  1  0
 10 11  1  0
 11 12  1  0
 11 13  1  0
 10 14  1  0
  6  4  1  0
 14  7  1  0
 13  4  1  0
 14  8  1  0
 13  9  1  0
  1 15  1  0
  1 16  1  0
  1 17  1  0
  2 18  1  0
  3 19  1  0
  5 20  1  0
  6 21  1  0
  7 22  1  0
  8 23  1  0
  9 24  1  0
 10 25  1  0
 12 26  1  0
 12 27  1  0
 12 28  1  0
 13 29  1  0
M  END
