
     RDKit          2D

 71 74  0  0  0  0  0  0  0  0999 V2000
   -4.3804   26.7904   11.9555 C   0  0  0  0  0  0  0  0  0  0  0  0
   -3.2042   26.6854   11.0305 C   0  0  0  0  0  0  0  0  0  0  0  0
   -3.3686   26.9897    9.5709 C   0  0  0  0  0  0  0  0  0  0  0  0
   -3.5328   27.2938    8.1113 C   0  0  0  0  0  0  0  0  0  0  0  0
   -2.0798   26.9975    7.8860 O   0  0  0  0  0  0  0  0  0  0  0  0
   -3.6971   27.5980    6.6517 C   0  0  0  0  0  0  0  0  0  0  0  0
   -3.8614   27.9023    5.1921 C   0  0  0  0  0  0  0  0  0  0  0  0
   -2.6414   27.7756    4.3286 C   0  0  0  0  0  0  0  0  0  0  0  0
   -1.4979   27.3505    5.2012 C   0  0  0  0  0  0  0  0  0  0  0  0
   -0.7112   27.3999    3.9250 C   0  0  0  0  0  0  0  0  0  0  0  0
    0.0755   27.4494    2.6488 N   0  0  0  0  0  0  0  0  0  0  0  0
    0.5054   26.9147    4.6561 O   0  0  0  0  0  0  0  0  0  0  0  0
    1.7949   26.7149    3.9165 C   0  0  0  0  0  0  0  0  0  0  0  0
    3.0845   26.5152    3.1768 C   0  0  0  0  0  0  0  0  0  0  0  0
    4.3740   26.3154    2.4371 C   0  0  0  0  0  0  0  0  0  0  0  0
    3.7115   25.9581    4.4204 C   0  0  0  0  0  0  0  0  0  0  0  0
    4.3385   25.4010    5.6640 C   0  0  0  0  0  0  0  0  0  0  0  0
    4.9655   24.8440    6.9075 C   0  0  0  0  0  0  0  0  0  0  0  0
    2.9799   25.0390    6.1867 C   0  0  0  0  0  0  0  0  0  0  0  0
    1.6214   24.6770    6.7095 C   0  0  0  0  0  0  0  0  0  0  0  0
    1.0004   25.1672    5.4352 C   0  0  0  0  0  0  0  0  0  0  0  0
    2.2424   24.1868    7.9840 C   0  0  0  0  0  0  0  0  0  0  0  0
    0.8839   23.8248    8.5067 C   0  0  0  0  0  0  0  0  0  0  0  0
   -0.6032   23.7563    8.3223 C   0  0  0  0  0  0  0  0  0  0  0  0
   -1.0007   23.1481    9.6345 C   0  0  0  0  0  0  0  0  0  0  0  0
    0.2628   24.3149    7.2324 C   0  0  0  0  0  0  0  0  0  0  0  0
   -2.2442   27.3010    6.4263 C   0  0  0  0  0  0  0  0  0  0  0  0
   -2.4085   27.6052    4.9666 C   0  0  0  0  0  0  0  0  0  0  0  0
   -4.2162   26.4862   13.4151 H   0  0  0  0  0  0  0  0  0  0  0  0
   -5.7209   27.1995   11.4210 H   0  0  0  0  0  0  0  0  0  0  0  0
   -1.8638   26.2763   11.5651 H   0  0  0  0  0  0  0  0  0  0  0  0
   -1.9465   26.7319    9.1692 H   0  0  0  0  0  0  0  0  0  0  0  0
   -4.8214   27.2866    9.7963 H   0  0  0  0  0  0  0  0  0  0  0  0
   -4.9859   27.5902    8.3366 H   0  0  0  0  0  0  0  0  0  0  0  0
   -1.1247   27.2620    6.7600 H   0  0  0  0  0  0  0  0  0  0  0  0
   -5.1500   27.8951    6.8771 H   0  0  0  0  0  0  0  0  0  0  0  0
   -5.0050   28.3274    4.3194 H   0  0  0  0  0  0  0  0  0  0  0  0
   -3.5705   28.1926    3.2271 H   0  0  0  0  0  0  0  0  0  0  0  0
   -2.1679   27.7823    3.6873 H   0  0  0  0  0  0  0  0  0  0  0  0
   -0.2793   26.9274    5.9668 H   0  0  0  0  0  0  0  0  0  0  0  0
   -1.2374   27.6565    3.3839 H   0  0  0  0  0  0  0  0  0  0  0  0
    1.5331   27.1415    2.4743 H   0  0  0  0  0  0  0  0  0  0  0  0
   -0.5985   27.8402    1.3670 H   0  0  0  0  0  0  0  0  0  0  0  0
    1.1917   26.3822    2.5839 H   0  0  0  0  0  0  0  0  0  0  0  0
    2.5610   27.0257    5.1681 H   0  0  0  0  0  0  0  0  0  0  0  0
    2.4574   27.0723    1.9332 H   0  0  0  0  0  0  0  0  0  0  0  0
    5.6636   26.1156    1.6975 H   0  0  0  0  0  0  0  0  0  0  0  0
    3.7470   26.8724    1.1935 H   0  0  0  0  0  0  0  0  0  0  0  0
    5.1535   25.7382    3.5812 H   0  0  0  0  0  0  0  0  0  0  0  0
    4.6789   25.0356    3.7399 H   0  0  0  0  0  0  0  0  0  0  0  0
    2.9922   26.6588    5.5347 H   0  0  0  0  0  0  0  0  0  0  0  0
    5.6970   25.7631    5.1412 H   0  0  0  0  0  0  0  0  0  0  0  0
    5.5925   24.2869    8.1511 H   0  0  0  0  0  0  0  0  0  0  0  0
    6.3692   24.7647    6.3849 H   0  0  0  0  0  0  0  0  0  0  0  0
    6.2164   24.9006    6.0816 H   0  0  0  0  0  0  0  0  0  0  0  0
    3.4442   24.3058    7.4102 H   0  0  0  0  0  0  0  0  0  0  0  0
    3.7754   24.3940    7.2828 H   0  0  0  0  0  0  0  0  0  0  0  0
    0.0690   25.5551    4.3251 H   0  0  0  0  0  0  0  0  0  0  0  0
    2.4687   25.4001    5.2364 H   0  0  0  0  0  0  0  0  0  0  0  0
   -0.3582   24.8048    5.9579 H   0  0  0  0  0  0  0  0  0  0  0  0
    2.8634   23.6966    9.2583 H   0  0  0  0  0  0  0  0  0  0  0  0
    1.0745   23.7169    8.7996 H   0  0  0  0  0  0  0  0  0  0  0  0
    1.3098   23.2890    9.8414 H   0  0  0  0  0  0  0  0  0  0  0  0
   -1.8639   23.9703    7.5382 H   0  0  0  0  0  0  0  0  0  0  0  0
   -1.3982   22.5399   10.9468 H   0  0  0  0  0  0  0  0  0  0  0  0
    0.3805   23.0314   10.2078 H   0  0  0  0  0  0  0  0  0  0  0  0
   -2.4411   23.1910    9.2181 H   0  0  0  0  0  0  0  0  0  0  0  0
   -0.9390   24.5681    6.3713 H   0  0  0  0  0  0  0  0  0  0  0  0
   -1.2202   26.8783    7.4376 H   0  0  0  0  0  0  0  0  0  0  0  0
   -2.7486   27.9433    3.5454 H   0  0  0  0  0  0  0  0  0  0  0  0
   -1.0385   27.3905    4.3947 H   0  0  0  0  0  0  0  0  0  0  0  0
  1  2  2  3
  2  3  1  0
  3  4  1  0
  4  5  1  0
  4  6  1  0
  6  7  1  0
  7  8  1  0
  8  9  1  0
  9 10  1  0
 10 11  1  0
 10 12  1  0
 12 13  1  0
 13 14  1  0
 14 15  1  0
 14 16  1  0
 16 17  1  0
 17 18  1  0
 17 19  1  0
 19 20  1  0
 20 21  1  0
 20 22  1  0
 22 23  1  0
 23 24  1  0
 24 25  1  0
 24 26  1  0
  9 27  1  0
 27 28  1  0
 27  6  1  0
 28  7  1  0
 26 20  1  0
 26 23  1  0
  1 29  1  0
  1 30  1  0
  2 31  1  0
  3 32  1  0
  3 33  1  0
  4 34  1  0
  5 35  1  0
  6 36  1  0
  7 37  1  0
  8 38  1  0
  8 39  1  0
  9 40  1  0
 10 41  1  0
 11 42  1  0
 11 43  1  0
 13 44  1  0
 13 45  1  0
 14 46  1  0
 15 47  1  0
 15 48  1  0
 15 49  1  0
 16 50  1  0
 16 51  1  0
 17 52  1  0
 18 53  1  0
 18 54  1  0
 18 55  1  0
 19 56  1  0
 19 57  1  0
 21 58  1  0
 21 59  1  0
 21 60  1  0
 22 61  1  0
 22 62  1  0
 23 63  1  0
 24 64  1  0
 25 65  1  0
 25 66  1  0
 25 67  1  0
 26 68  1  0
 27 69  1  0
 28 70  1  0
 28 71  1  0
M  END
