
     RDKit          2D

 43 44  0  0  0  0  0  0  0  0999 V2000
   -9.3666   25.9927   12.4845 C   0  0  0  0  0  0  0  0  0  0  0  0
   -7.9446   26.1124   12.0223 C   0  0  0  0  0  0  0  0  0  0  0  0
   -6.5227   26.2322   11.5601 C   0  0  0  0  0  0  0  0  0  0  0  0
   -7.1427   26.3990   10.2045 C   0  0  0  0  0  0  0  0  0  0  0  0
   -6.0365   26.5818    9.2080 C   0  0  0  0  0  0  0  0  0  0  0  0
   -5.1647   26.7846    8.0043 C   0  0  0  0  0  0  0  0  0  0  0  0
   -4.2930   26.9875    6.8006 C   0  0  0  0  0  0  0  0  0  0  0  0
   -3.0737   26.9141    7.6713 O   0  0  0  0  0  0  0  0  0  0  0  0
   -3.4212   27.1904    5.5970 C   0  0  0  0  0  0  0  0  0  0  0  0
   -2.5494   27.3932    4.3933 C   0  0  0  0  0  0  0  0  0  0  0  0
   -3.8532   27.4474    3.6535 C   0  0  0  0  0  0  0  0  0  0  0  0
   -1.9502   27.6074    3.0349 C   0  0  0  0  0  0  0  0  0  0  0  0
   -0.4584   27.6433    3.1868 C   0  0  0  0  0  0  0  0  0  0  0  0
   -0.1356   27.4512    4.6390 C   0  0  0  0  0  0  0  0  0  0  0  0
   -1.4279   27.2967    5.3846 C   0  0  0  0  0  0  0  0  0  0  0  0
   -4.7327   26.5279    9.9478 O   0  0  0  0  0  0  0  0  0  0  0  0
   -5.0332   26.3118   11.4014 O   0  0  0  0  0  0  0  0  0  0  0  0
  -10.7886   25.8729   12.9467 H   0  0  0  0  0  0  0  0  0  0  0  0
   -9.8410   26.1827   11.0742 H   0  0  0  0  0  0  0  0  0  0  0  0
   -8.8922   25.8027   13.8947 H   0  0  0  0  0  0  0  0  0  0  0  0
   -7.4812   26.1160   13.4489 H   0  0  0  0  0  0  0  0  0  0  0  0
   -8.2812   26.1028   11.2997 H   0  0  0  0  0  0  0  0  0  0  0  0
   -6.1998   26.0403   13.0123 H   0  0  0  0  0  0  0  0  0  0  0  0
   -8.0330   26.5335    9.0047 H   0  0  0  0  0  0  0  0  0  0  0  0
   -7.8736   26.3273   10.5145 H   0  0  0  0  0  0  0  0  0  0  0  0
   -7.1580   26.6780    8.2166 H   0  0  0  0  0  0  0  0  0  0  0  0
   -6.1939   26.1114    7.1454 H   0  0  0  0  0  0  0  0  0  0  0  0
   -4.1355   27.4578    8.8632 H   0  0  0  0  0  0  0  0  0  0  0  0
   -5.5123   27.0609    5.9300 H   0  0  0  0  0  0  0  0  0  0  0  0
   -1.6437   27.0313    7.2339 H   0  0  0  0  0  0  0  0  0  0  0  0
   -4.7377   27.2390    4.8796 H   0  0  0  0  0  0  0  0  0  0  0  0
   -2.2019   27.1164    6.4676 H   0  0  0  0  0  0  0  0  0  0  0  0
   -5.1570   27.5015    2.9138 H   0  0  0  0  0  0  0  0  0  0  0  0
   -3.2811   27.7226    2.2945 H   0  0  0  0  0  0  0  0  0  0  0  0
   -4.7433   27.1854    4.8322 H   0  0  0  0  0  0  0  0  0  0  0  0
   -3.3135   27.6431    2.4102 H   0  0  0  0  0  0  0  0  0  0  0  0
   -1.6498   27.8236    1.5813 H   0  0  0  0  0  0  0  0  0  0  0  0
   -0.4699   27.8519    1.7015 H   0  0  0  0  0  0  0  0  0  0  0  0
    1.0311   27.7227    3.0281 H   0  0  0  0  0  0  0  0  0  0  0  0
    1.2864   27.5708    4.1768 H   0  0  0  0  0  0  0  0  0  0  0  0
    0.4845   27.2842    5.9946 H   0  0  0  0  0  0  0  0  0  0  0  0
   -0.5377   27.1619    6.5844 H   0  0  0  0  0  0  0  0  0  0  0  0
   -2.4026   27.1012    6.5079 H   0  0  0  0  0  0  0  0  0  0  0  0
  1  2  1  0
  2  3  1  0
  3  4  1  0
  4  5  1  0
  5  6  1  0
  6  7  1  0
  7  8  1  0
  7  9  1  0
  9 10  1  0
 10 11  1  0
 10 12  1  0
 12 13  1  0
 13 14  1  0
 14 15  1  0
  5 16  1  0
 16 17  1  0
 17  3  1  0
 15 10  1  0
  1 18  1  0
  1 19  1  0
  1 20  1  0
  2 21  1  0
  2 22  1  0
  3 23  1  0
  4 24  1  0
  4 25  1  0
  5 26  1  0
  6 27  1  0
  6 28  1  0
  7 29  1  0
  8 30  1  0
  9 31  1  0
  9 32  1  0
 11 33  1  0
 11 34  1  0
 11 35  1  0
 12 36  1  0
 12 37  1  0
 13 38  1  0
 13 39  1  0
 14 40  1  0
 14 41  1  0
 15 42  1  0
 15 43  1  0
M  END
