
     RDKit          2D

 47 50  0  0  0  0  0  0  0  0999 V2000
   21.7269  -19.7871  -15.7574 C   0  0  0  0  0  0  0  0  0  0  0  0
   20.2371  -19.7644  -15.5838 C   0  0  0  0  0  0  0  0  0  0  0  0
   20.2733  -21.1801  -15.0891 F   0  0  0  0  0  0  0  0  0  0  0  0
   18.7473  -19.7419  -15.4101 C   0  0  0  0  0  0  0  0  0  0  0  0
   18.4533  -18.3432  -15.8653 O   0  0  0  0  0  0  0  0  0  0  0  0
   17.3351  -19.2363  -15.4155 C   0  0  0  0  0  0  0  0  0  0  0  0
   16.1708  -18.3085  -15.5993 O   0  0  0  0  0  0  0  0  0  0  0  0
   16.6214  -20.4515  -14.9019 C   0  0  0  0  0  0  0  0  0  0  0  0
   15.4570  -19.5237  -15.0857 C   0  0  0  0  0  0  0  0  0  0  0  0
   14.6811  -18.2860  -15.4256 F   0  0  0  0  0  0  0  0  0  0  0  0
   14.0695  -19.9869  -14.7539 C   0  0  0  0  0  0  0  0  0  0  0  0
   13.8462  -21.3778  -14.2384 C   0  0  0  0  0  0  0  0  0  0  0  0
   12.3931  -21.6362  -13.9705 C   0  0  0  0  0  0  0  0  0  0  0  0
   11.7455  -22.8862  -13.4528 C   0  0  0  0  0  0  0  0  0  0  0  0
   12.3909  -24.1864  -13.0749 C   0  0  0  0  0  0  0  0  0  0  0  0
   13.8435  -24.5578  -13.1216 C   0  0  0  0  0  0  0  0  0  0  0  0
   13.4031  -25.8931  -12.5991 C   0  0  0  0  0  0  0  0  0  0  0  0
   14.8562  -25.6347  -12.8670 C   0  0  0  0  0  0  0  0  0  0  0  0
   15.0093  -23.7207  -13.5576 O   0  0  0  0  0  0  0  0  0  0  0  0
   15.0105  -22.3054  -14.0546 C   0  0  0  0  0  0  0  0  0  0  0  0
   16.3981  -21.8423  -14.3864 C   0  0  0  0  0  0  0  0  0  0  0  0
   17.8879  -21.8649  -14.5600 N   0  0  0  0  0  0  0  0  0  0  0  0
   23.2165  -19.8097  -15.9310 H   0  0  0  0  0  0  0  0  0  0  0  0
   21.7622  -21.2047  -15.2684 H   0  0  0  0  0  0  0  0  0  0  0  0
   21.6913  -18.3694  -16.2464 H   0  0  0  0  0  0  0  0  0  0  0  0
   20.2009  -18.3489  -16.0784 H   0  0  0  0  0  0  0  0  0  0  0  0
   18.8732  -21.0148  -14.9785 H   0  0  0  0  0  0  0  0  0  0  0  0
   16.3941  -16.9178  -16.1148 H   0  0  0  0  0  0  0  0  0  0  0  0
   17.8924  -20.9065  -14.8970 H   0  0  0  0  0  0  0  0  0  0  0  0
   15.9069  -18.9219  -15.3518 H   0  0  0  0  0  0  0  0  0  0  0  0
   12.5864  -19.7918  -14.6416 H   0  0  0  0  0  0  0  0  0  0  0  0
   13.7753  -18.5883  -15.2091 H   0  0  0  0  0  0  0  0  0  0  0  0
   15.1893  -20.8159  -14.5994 H   0  0  0  0  0  0  0  0  0  0  0  0
   12.2126  -20.2244  -14.4442 H   0  0  0  0  0  0  0  0  0  0  0  0
   10.9920  -21.1010  -13.9877 H   0  0  0  0  0  0  0  0  0  0  0  0
   10.4764  -22.0959  -13.5756 H   0  0  0  0  0  0  0  0  0  0  0  0
   10.4752  -23.5778  -13.0551 H   0  0  0  0  0  0  0  0  0  0  0  0
   10.9890  -24.6128  -12.7544 H   0  0  0  0  0  0  0  0  0  0  0  0
   12.2081  -25.5842  -12.5620 H   0  0  0  0  0  0  0  0  0  0  0  0
   11.9129  -25.8318  -12.4391 H   0  0  0  0  0  0  0  0  0  0  0  0
   13.4762  -27.3096  -12.1108 H   0  0  0  0  0  0  0  0  0  0  0  0
   15.4339  -26.9613  -12.4717 H   0  0  0  0  0  0  0  0  0  0  0  0
   16.1086  -24.9155  -13.2721 H   0  0  0  0  0  0  0  0  0  0  0  0
   16.1294  -23.2828  -13.8479 H   0  0  0  0  0  0  0  0  0  0  0  0
   16.8681  -23.2033  -13.9658 H   0  0  0  0  0  0  0  0  0  0  0  0
   18.6638  -23.1027  -14.2200 H   0  0  0  0  0  0  0  0  0  0  0  0
   18.8969  -20.8619  -15.0351 H   0  0  0  0  0  0  0  0  0  0  0  0
  1  2  1  0
  2  3  1  0
  2  4  1  0
  4  5  1  0
  5  6  1  0
  6  7  1  0
  6  8  1  0
  8  9  1  0
  9 10  1  0
  9 11  1  0
 11 12  1  0
 12 13  1  0
 13 14  1  0
 14 15  1  0
 15 16  1  0
 16 17  1  0
 17 18  1  0
 16 19  1  0
 19 20  1  0
 20 21  1  0
 21 22  1  0
  6  4  1  0
 21  8  1  0
 20 12  1  0
 18 16  1  0
  1 23  1  0
  1 24  1  0
  1 25  1  0
  2 26  1  0
  4 27  1  0
  7 28  1  0
  8 29  1  0
  9 30  1  0
 11 31  1  0
 11 32  1  0
 12 33  1  0
 13 34  1  0
 13 35  1  0
 14 36  1  0
 14 37  1  0
 15 38  1  0
 15 39  1  0
 17 40  1  0
 17 41  1  0
 18 42  1  0
 18 43  1  0
 20 44  1  0
 21 45  1  0
 22 46  1  0
 22 47  1  0
M  END
