
     RDKit          2D

113121  0  0  0  0  0  0  0  0999 V2000
   22.0531  -25.6006  -21.1817 C   0  0  0  0  0  0  0  0  0  0  0  0
   20.5914  -25.3814  -20.9264 C   0  0  0  0  0  0  0  0  0  0  0  0
   19.6512  -25.1785  -22.0774 C   0  0  0  0  0  0  0  0  0  0  0  0
   18.7109  -24.9756  -23.2285 C   0  0  0  0  0  0  0  0  0  0  0  0
   17.7708  -24.7727  -24.3794 C   0  0  0  0  0  0  0  0  0  0  0  0
   16.8305  -24.5699  -25.5304 C   0  0  0  0  0  0  0  0  0  0  0  0
   15.8903  -24.3670  -26.6815 C   0  0  0  0  0  0  0  0  0  0  0  0
   14.9500  -24.1641  -27.8324 C   0  0  0  0  0  0  0  0  0  0  0  0
   14.7660  -24.1200  -25.7196 C   0  0  0  0  0  0  0  0  0  0  0  0
   13.6419  -23.8730  -24.7577 C   0  0  0  0  0  0  0  0  0  0  0  0
   12.5178  -23.6260  -23.7957 C   0  0  0  0  0  0  0  0  0  0  0  0
   20.0698  -25.3650  -19.5201 C   0  0  0  0  0  0  0  0  0  0  0  0
   19.5483  -25.3487  -18.1138 C   0  0  0  0  0  0  0  0  0  0  0  0
   19.0267  -25.3323  -16.7075 C   0  0  0  0  0  0  0  0  0  0  0  0
   18.5051  -25.3158  -15.3011 C   0  0  0  0  0  0  0  0  0  0  0  0
   17.9835  -25.2994  -13.8948 C   0  0  0  0  0  0  0  0  0  0  0  0
   17.5735  -24.7778  -12.5496 C   0  0  0  0  0  0  0  0  0  0  0  0
   18.1236  -23.8391  -13.5821 C   0  0  0  0  0  0  0  0  0  0  0  0
   18.0656  -22.5492  -12.8187 C   0  0  0  0  0  0  0  0  0  0  0  0
   18.6358  -22.0584  -14.1165 C   0  0  0  0  0  0  0  0  0  0  0  0
   18.9569  -20.6038  -14.2921 C   0  0  0  0  0  0  0  0  0  0  0  0
   18.7079  -19.6399  -13.1701 C   0  0  0  0  0  0  0  0  0  0  0  0
   18.4589  -18.6760  -12.0481 C   0  0  0  0  0  0  0  0  0  0  0  0
   18.2699  -18.0225  -11.2334 C   0  0  0  0  0  0  0  0  0  0  0  0
   18.5911  -16.5678  -11.4091 C   0  0  0  0  0  0  0  0  0  0  0  0
   18.0209  -17.0586  -10.1115 C   0  0  0  0  0  0  0  0  0  0  0  0
   17.4809  -17.1712   -8.7166 C   0  0  0  0  0  0  0  0  0  0  0  0
   17.1071  -16.5309   -7.4126 C   0  0  0  0  0  0  0  0  0  0  0  0
   16.7334  -15.8905   -6.1086 C   0  0  0  0  0  0  0  0  0  0  0  0
   16.9663  -18.2944   -7.8659 C   0  0  0  0  0  0  0  0  0  0  0  0
   16.3961  -18.7852   -6.5682 C   0  0  0  0  0  0  0  0  0  0  0  0
   15.8259  -19.2759   -5.2705 C   0  0  0  0  0  0  0  0  0  0  0  0
   15.8774  -17.8814   -4.7204 C   0  0  0  0  0  0  0  0  0  0  0  0
   15.3072  -18.3722   -3.4228 C   0  0  0  0  0  0  0  0  0  0  0  0
   15.2557  -19.7667   -3.9728 C   0  0  0  0  0  0  0  0  0  0  0  0
   16.7785  -19.7702   -8.0578 C   0  0  0  0  0  0  0  0  0  0  0  0
   16.3459  -21.1046   -7.5265 O   0  0  0  0  0  0  0  0  0  0  0  0
   17.0275  -20.7341   -9.1798 C   0  0  0  0  0  0  0  0  0  0  0  0
   17.5675  -20.6214  -10.5746 C   0  0  0  0  0  0  0  0  0  0  0  0
   17.8165  -21.5853  -11.6967 C   0  0  0  0  0  0  0  0  0  0  0  0
   18.1377  -20.1307  -11.8724 C   0  0  0  0  0  0  0  0  0  0  0  0
   18.2720  -26.7959  -15.3704 C   0  0  0  0  0  0  0  0  0  0  0  0
   17.7180  -27.0369  -13.9974 C   0  0  0  0  0  0  0  0  0  0  0  0
   18.2312  -28.1925  -15.9164 C   0  0  0  0  0  0  0  0  0  0  0  0
   18.7450  -27.0691  -16.7674 S   0  0  0  0  0  0  0  0  0  0  0  0
   22.5747  -25.6170  -22.5880 H   0  0  0  0  0  0  0  0  0  0  0  0
   22.9934  -25.8035  -20.0306 H   0  0  0  0  0  0  0  0  0  0  0  0
   20.5622  -25.9766  -22.9623 H   0  0  0  0  0  0  0  0  0  0  0  0
   18.7401  -24.3804  -21.1925 H   0  0  0  0  0  0  0  0  0  0  0  0
   17.5751  -24.7857  -22.2672 H   0  0  0  0  0  0  0  0  0  0  0  0
   19.8467  -25.1656  -24.1896 H   0  0  0  0  0  0  0  0  0  0  0  0
   18.8984  -25.0030  -25.3413 H   0  0  0  0  0  0  0  0  0  0  0  0
   16.6430  -24.5424  -23.4176 H   0  0  0  0  0  0  0  0  0  0  0  0
   15.6651  -24.8453  -24.6271 H   0  0  0  0  0  0  0  0  0  0  0  0
   17.5812  -24.4230  -25.9771 H   0  0  0  0  0  0  0  0  0  0  0  0
   17.0145  -24.6140  -27.6434 H   0  0  0  0  0  0  0  0  0  0  0  0
   14.0098  -23.9612  -28.9835 H   0  0  0  0  0  0  0  0  0  0  0  0
   14.2235  -24.0047  -27.3516 H   0  0  0  0  0  0  0  0  0  0  0  0
   16.0742  -24.4111  -28.7943 H   0  0  0  0  0  0  0  0  0  0  0  0
   14.1817  -23.8164  -26.3120 H   0  0  0  0  0  0  0  0  0  0  0  0
   15.1885  -24.3879  -24.9886 H   0  0  0  0  0  0  0  0  0  0  0  0
   14.5007  -24.3610  -23.6288 H   0  0  0  0  0  0  0  0  0  0  0  0
   12.7831  -23.3850  -25.8865 H   0  0  0  0  0  0  0  0  0  0  0  0
   11.3937  -23.3791  -22.8337 H   0  0  0  0  0  0  0  0  0  0  0  0
   11.6606  -23.1337  -24.9239 H   0  0  0  0  0  0  0  0  0  0  0  0
   13.3750  -24.1183  -22.6675 H   0  0  0  0  0  0  0  0  0  0  0  0
   20.0658  -23.8652  -19.5391 H   0  0  0  0  0  0  0  0  0  0  0  0
   20.0739  -26.8649  -19.5011 H   0  0  0  0  0  0  0  0  0  0  0  0
   19.4559  -26.8457  -18.1305 H   0  0  0  0  0  0  0  0  0  0  0  0
   19.6406  -23.8516  -18.0970 H   0  0  0  0  0  0  0  0  0  0  0  0
   18.9672  -26.1826  -16.9482 H   0  0  0  0  0  0  0  0  0  0  0  0
   19.2605  -23.8522  -16.6380 H   0  0  0  0  0  0  0  0  0  0  0  0
   18.7383  -23.8357  -15.2320 H   0  0  0  0  0  0  0  0  0  0  0  0
   17.5575  -26.6447  -13.3864 H   0  0  0  0  0  0  0  0  0  0  0  0
   17.1100  -26.0514  -11.9067 H   0  0  0  0  0  0  0  0  0  0  0  0
   17.2636  -23.9581  -11.3323 H   0  0  0  0  0  0  0  0  0  0  0  0
   18.6938  -23.3483  -14.8798 H   0  0  0  0  0  0  0  0  0  0  0  0
   17.5006  -23.3415  -11.6772 H   0  0  0  0  0  0  0  0  0  0  0  0
   19.1573  -22.0748  -15.5228 H   0  0  0  0  0  0  0  0  0  0  0  0
   18.4958  -23.5187  -14.4292 H   0  0  0  0  0  0  0  0  0  0  0  0
   19.4205  -19.3303  -14.9350 H   0  0  0  0  0  0  0  0  0  0  0  0
   19.3669  -21.1254  -15.6374 H   0  0  0  0  0  0  0  0  0  0  0  0
   18.2688  -20.9629  -12.6162 H   0  0  0  0  0  0  0  0  0  0  0  0
   18.7808  -18.1034  -12.6415 H   0  0  0  0  0  0  0  0  0  0  0  0
   19.1126  -16.5842  -12.8154 H   0  0  0  0  0  0  0  0  0  0  0  0
   18.7311  -15.1075  -11.0964 H   0  0  0  0  0  0  0  0  0  0  0  0
   18.1366  -15.6102   -9.7392 H   0  0  0  0  0  0  0  0  0  0  0  0
   17.8021  -15.7166   -8.8922 H   0  0  0  0  0  0  0  0  0  0  0  0
   17.5470  -15.1978   -7.9411 H   0  0  0  0  0  0  0  0  0  0  0  0
   16.6250  -17.7760   -6.7291 H   0  0  0  0  0  0  0  0  0  0  0  0
   16.3597  -15.2502   -4.8047 H   0  0  0  0  0  0  0  0  0  0  0  0
   17.1689  -14.5567   -6.6388 H   0  0  0  0  0  0  0  0  0  0  0  0
   16.2556  -17.1365   -5.4235 H   0  0  0  0  0  0  0  0  0  0  0  0
   16.6648  -17.4533   -6.6610 H   0  0  0  0  0  0  0  0  0  0  0  0
   16.3643  -17.4585   -5.8691 H   0  0  0  0  0  0  0  0  0  0  0  0
   16.2889  -20.2316   -6.9509 H   0  0  0  0  0  0  0  0  0  0  0  0
   15.7052  -20.7199   -5.6583 H   0  0  0  0  0  0  0  0  0  0  0  0
   15.9290  -16.4869   -4.1704 H   0  0  0  0  0  0  0  0  0  0  0  0
   15.3117  -18.6950   -3.5945 H   0  0  0  0  0  0  0  0  0  0  0  0
   14.7370  -18.8629   -2.1250 H   0  0  0  0  0  0  0  0  0  0  0  0
   15.3588  -16.9777   -2.8727 H   0  0  0  0  0  0  0  0  0  0  0  0
   15.2042  -21.1613   -4.5229 H   0  0  0  0  0  0  0  0  0  0  0  0
   14.6855  -20.2575   -2.6751 H   0  0  0  0  0  0  0  0  0  0  0  0
   16.2218  -20.0366   -6.6906 H   0  0  0  0  0  0  0  0  0  0  0  0
   15.7870  -21.3963   -6.1654 H   0  0  0  0  0  0  0  0  0  0  0  0
   16.9859  -22.1305   -9.7262 H   0  0  0  0  0  0  0  0  0  0  0  0
   16.5087  -21.8403   -8.3098 H   0  0  0  0  0  0  0  0  0  0  0  0
   17.3019  -22.7085  -10.8461 H   0  0  0  0  0  0  0  0  0  0  0  0
   17.1640  -27.2778  -12.6244 H   0  0  0  0  0  0  0  0  0  0  0  0
   17.7198  -25.6783  -13.3617 H   0  0  0  0  0  0  0  0  0  0  0  0
   17.5115  -28.5157  -14.1405 H   0  0  0  0  0  0  0  0  0  0  0  0
   17.6746  -29.0702  -14.8349 H   0  0  0  0  0  0  0  0  0  0  0  0
   18.3878  -29.3369  -16.8734 H   0  0  0  0  0  0  0  0  0  0  0  0
  1  2  2  3
  2  3  1  0
  3  4  1  0
  4  5  1  0
  5  6  1  0
  6  7  1  0
  7  8  1  0
  7  9  1  0
  9 10  1  0
 10 11  1  0
  2 12  1  0
 12 13  1  0
 13 14  1  0
 14 15  1  0
 15 16  1  0
 16 17  1  0
 17 18  1  0
 18 19  1  0
 19 20  1  0
 20 21  1  0
 21 22  1  0
 22 23  1  0
 23 24  1  0
 24 25  1  0
 25 26  1  0
 26 27  1  0
 27 28  1  0
 28 29  1  0
 27 30  1  0
 30 31  1  0
 31 32  1  0
 32 33  1  0
 33 34  1  0
 34 35  1  0
 30 36  1  0
 36 37  1  0
 36 38  1  0
 38 39  1  0
 39 40  1  0
 40 41  1  0
 15 42  1  0
 42 43  1  0
 42 44  1  0
 44 45  1  0
 18 16  1  0
 40 19  1  0
 45 42  1  0
 41 22  1  0
 39 23  1  0
 41 23  1  0
 26 24  1  0
 35 32  1  0
 41 39  1  0
  1 46  1  0
  1 47  1  0
  3 48  1  0
  3 49  1  0
  4 50  1  0
  4 51  1  0
  5 52  1  0
  5 53  1  0
  6 54  1  0
  6 55  1  0
  7 56  1  0
  8 57  1  0
  8 58  1  0
  8 59  1  0
  9 60  1  0
  9 61  1  0
 10 62  1  0
 10 63  1  0
 11 64  1  0
 11 65  1  0
 11 66  1  0
 12 67  1  0
 12 68  1  0
 13 69  1  0
 13 70  1  0
 14 71  1  0
 14 72  1  0
 15 73  1  0
 16 74  1  0
 17 75  1  0
 17 76  1  0
 18 77  1  0
 19 78  1  0
 20 79  1  0
 20 80  1  0
 21 81  1  0
 21 82  1  0
 22 83  1  0
 24 84  1  0
 25 85  1  0
 25 86  1  0
 26 87  1  0
 27 88  1  0
 28 89  1  0
 28 90  1  0
 29 91  1  0
 29 92  1  0
 29 93  1  0
 30 94  1  0
 31 95  1  0
 31 96  1  0
 32 97  1  0
 33 98  1  0
 33 99  1  0
 34100  1  0
 34101  1  0
 35102  1  0
 35103  1  0
 36104  1  0
 37105  1  0
 38106  1  0
 38107  1  0
 40108  1  0
 43109  1  0
 43110  1  0
 43111  1  0
 44112  1  0
 44113  1  0
M  END
