
     RDKit          2D

 61 61  0  0  0  0  0  0  0  0999 V2000
   23.9576  -24.8040  -12.8595 C   0  0  0  0  0  0  0  0  0  0  0  0
   22.8270  -23.8244  -12.9698 C   0  0  0  0  0  0  0  0  0  0  0  0
   21.9569  -23.6141  -14.1734 O   0  0  0  0  0  0  0  0  0  0  0  0
   20.9601  -22.5428  -13.8433 C   0  0  0  0  0  0  0  0  0  0  0  0
   21.2143  -22.0910  -12.4358 C   0  0  0  0  0  0  0  0  0  0  0  0
      -nan      -nan      -nan C   0  0  0  0  0  0  0  0  0  0  0  0
      -nan      -nan      -nan C   0  0  0  0  0  0  0  0  0  0  0  0
      -nan      -nan      -nan C   0  0  0  0  0  0  0  0  0  0  0  0
   20.0634  -21.1640  -12.6926 C   0  0  0  0  0  0  0  0  0  0  0  0
   18.9124  -20.2369  -12.9494 C   0  0  0  0  0  0  0  0  0  0  0  0
   17.7616  -19.3099  -13.2062 C   0  0  0  0  0  0  0  0  0  0  0  0
   16.6106  -18.3829  -13.4630 C   0  0  0  0  0  0  0  0  0  0  0  0
   15.4597  -17.4558  -13.7198 C   0  0  0  0  0  0  0  0  0  0  0  0
   14.3087  -16.5288  -13.9766 C   0  0  0  0  0  0  0  0  0  0  0  0
   15.8173  -17.4152  -15.1760 C   0  0  0  0  0  0  0  0  0  0  0  0
   16.1749  -17.3746  -16.6322 C   0  0  0  0  0  0  0  0  0  0  0  0
   14.7917  -16.8947  -16.9585 O   0  0  0  0  0  0  0  0  0  0  0  0
   16.5326  -17.3339  -18.0883 C   0  0  0  0  0  0  0  0  0  0  0  0
   16.8902  -17.2933  -19.5445 C   0  0  0  0  0  0  0  0  0  0  0  0
   17.5045  -18.4575  -17.8810 C   0  0  0  0  0  0  0  0  0  0  0  0
   18.4765  -19.5811  -17.6736 C   0  0  0  0  0  0  0  0  0  0  0  0
   19.4484  -20.7046  -17.4663 C   0  0  0  0  0  0  0  0  0  0  0  0
   22.3681  -22.8831  -11.8959 O   0  0  0  0  0  0  0  0  0  0  0  0
   24.7430  -24.9026  -11.5854 H   0  0  0  0  0  0  0  0  0  0  0  0
   24.3027  -25.6851  -14.0234 H   0  0  0  0  0  0  0  0  0  0  0  0
   20.3570  -22.0265  -13.9150 H   0  0  0  0  0  0  0  0  0  0  0  0
   20.4764  -22.7810  -15.2430 H   0  0  0  0  0  0  0  0  0  0  0  0
      -nan      -nan      -nan H   0  0  0  0  0  0  0  0  0  0  0  0
      -nan      -nan      -nan H   0  0  0  0  0  0  0  0  0  0  0  0
      -nan      -nan      -nan H   0  0  0  0  0  0  0  0  0  0  0  0
      -nan      -nan      -nan H   0  0  0  0  0  0  0  0  0  0  0  0
      -nan      -nan      -nan H   0  0  0  0  0  0  0  0  0  0  0  0
      -nan      -nan      -nan H   0  0  0  0  0  0  0  0  0  0  0  0
      -nan      -nan      -nan H   0  0  0  0  0  0  0  0  0  0  0  0
   20.1765  -21.0838  -13.4775 H   0  0  0  0  0  0  0  0  0  0  0  0
   19.5700  -21.0888  -11.2780 H   0  0  0  0  0  0  0  0  0  0  0  0
   19.0267  -19.7075  -11.5506 H   0  0  0  0  0  0  0  0  0  0  0  0
   18.7982  -20.7664  -14.3482 H   0  0  0  0  0  0  0  0  0  0  0  0
   17.6379  -19.8496  -14.6003 H   0  0  0  0  0  0  0  0  0  0  0  0
   17.8852  -18.7703  -11.8121 H   0  0  0  0  0  0  0  0  0  0  0  0
   16.5414  -18.0632  -11.9990 H   0  0  0  0  0  0  0  0  0  0  0  0
   16.8195  -18.8132  -14.8847 H   0  0  0  0  0  0  0  0  0  0  0  0
   15.1020  -17.4965  -12.2637 H   0  0  0  0  0  0  0  0  0  0  0  0
   13.1577  -15.6018  -14.2334 H   0  0  0  0  0  0  0  0  0  0  0  0
   15.2461  -15.5378  -14.6002 H   0  0  0  0  0  0  0  0  0  0  0  0
   13.2380  -17.3996  -13.3888 H   0  0  0  0  0  0  0  0  0  0  0  0
   14.7151  -16.4947  -15.6093 H   0  0  0  0  0  0  0  0  0  0  0  0
   17.0068  -18.3258  -15.0976 H   0  0  0  0  0  0  0  0  0  0  0  0
   17.5043  -17.8558  -16.1308 H   0  0  0  0  0  0  0  0  0  0  0  0
   14.2449  -16.5735  -18.3178 H   0  0  0  0  0  0  0  0  0  0  0  0
   15.6116  -16.2139  -18.4716 H   0  0  0  0  0  0  0  0  0  0  0  0
   17.2479  -17.2527  -21.0007 H   0  0  0  0  0  0  0  0  0  0  0  0
   16.0848  -16.0384  -19.7073 H   0  0  0  0  0  0  0  0  0  0  0  0
   17.7333  -18.5339  -19.5604 H   0  0  0  0  0  0  0  0  0  0  0  0
   17.8441  -18.6745  -19.3258 H   0  0  0  0  0  0  0  0  0  0  0  0
   17.4019  -18.5144  -16.3855 H   0  0  0  0  0  0  0  0  0  0  0  0
   18.6511  -19.7040  -19.1584 H   0  0  0  0  0  0  0  0  0  0  0  0
   18.3018  -19.4581  -16.1889 H   0  0  0  0  0  0  0  0  0  0  0  0
   20.4203  -21.8282  -17.2589 H   0  0  0  0  0  0  0  0  0  0  0  0
   19.7975  -20.6717  -18.9246 H   0  0  0  0  0  0  0  0  0  0  0  0
   19.0992  -20.7375  -16.0078 H   0  0  0  0  0  0  0  0  0  0  0  0
  1  2  2  3
  2  3  1  0
  3  4  1  0
  4  5  1  0
  5  6  1  0
  6  7  1  0
  7  8  1  0
  5  9  1  0
  9 10  1  0
 10 11  1  0
 11 12  1  0
 12 13  1  0
 13 14  1  0
 13 15  1  0
 15 16  1  0
 16 17  1  0
 16 18  1  0
 18 19  1  0
 18 20  1  0
 20 21  1  0
 21 22  1  0
  5 23  1  0
 23  2  1  0
  1 24  1  0
  1 25  1  0
  4 26  1  0
  4 27  1  0
  6 28  1  0
  6 29  1  0
  7 30  1  0
  7 31  1  0
  8 32  1  0
  8 33  1  0
  8 34  1  0
  9 35  1  0
  9 36  1  0
 10 37  1  0
 10 38  1  0
 11 39  1  0
 11 40  1  0
 12 41  1  0
 12 42  1  0
 13 43  1  0
 14 44  1  0
 14 45  1  0
 14 46  1  0
 15 47  1  0
 15 48  1  0
 16 49  1  0
 17 50  1  0
 18 51  1  0
 19 52  1  0
 19 53  1  0
 19 54  1  0
 20 55  1  0
 20 56  1  0
 21 57  1  0
 21 58  1  0
 22 59  1  0
 22 60  1  0
 22 61  1  0
M  END
