
     RDKit          2D

 90 96  0  0  0  0  0  0  0  0999 V2000
    1.3771   18.4288   10.1275 C   0  0  0  0  0  0  0  0  0  0  0  0
    1.5405   19.7869    9.5119 C   0  0  0  0  0  0  0  0  0  0  0  0
    2.3033   19.7383   10.8026 C   0  0  0  0  0  0  0  0  0  0  0  0
    3.1812   20.4652   11.7777 C   0  0  0  0  0  0  0  0  0  0  0  0
    3.8954   21.7370   12.1275 C   0  0  0  0  0  0  0  0  0  0  0  0
    4.2194   23.1498   11.7412 C   0  0  0  0  0  0  0  0  0  0  0  0
    4.0500   24.2550   10.7412 C   0  0  0  0  0  0  0  0  0  0  0  0
    3.3572   22.9584   10.4430 C   0  0  0  0  0  0  0  0  0  0  0  0
    2.5022   22.6048    9.2622 C   0  0  0  0  0  0  0  0  0  0  0  0
    2.1290   23.4605    8.0883 C   0  0  0  0  0  0  0  0  0  0  0  0
    2.5184   24.8811    7.8049 C   0  0  0  0  0  0  0  0  0  0  0  0
    3.3773   25.7969    8.6257 C   0  0  0  0  0  0  0  0  0  0  0  0
    3.0040   26.6526    7.4516 C   0  0  0  0  0  0  0  0  0  0  0  0
    2.6306   27.5083    6.2775 C   0  0  0  0  0  0  0  0  0  0  0  0
    2.2573   28.3640    5.1035 C   0  0  0  0  0  0  0  0  0  0  0  0
    3.0538   29.4982    5.6770 C   0  0  0  0  0  0  0  0  0  0  0  0
    2.6805   30.3540    4.5030 C   0  0  0  0  0  0  0  0  0  0  0  0
    1.9589   30.5279    3.1995 C   0  0  0  0  0  0  0  0  0  0  0  0
    1.1088   30.2090    2.0055 C   0  0  0  0  0  0  0  0  0  0  0  0
    0.2586   29.8901    0.8116 C   0  0  0  0  0  0  0  0  0  0  0  0
   -0.5915   29.5711   -0.3824 C   0  0  0  0  0  0  0  0  0  0  0  0
   -1.3204   29.7475   -1.6815 C   0  0  0  0  0  0  0  0  0  0  0  0
   -0.5374   30.8871   -1.1000 C   0  0  0  0  0  0  0  0  0  0  0  0
   -0.7850   31.9337   -2.1457 C   0  0  0  0  0  0  0  0  0  0  0  0
   -0.0020   33.0733   -1.5641 C   0  0  0  0  0  0  0  0  0  0  0  0
    0.0522   34.3894   -2.2816 N   0  0  0  0  0  0  0  0  0  0  0  0
   -0.7308   33.2498   -2.8632 C   0  0  0  0  0  0  0  0  0  0  0  0
    1.8840   29.2197    3.9295 C   0  0  0  0  0  0  0  0  0  0  0  0
    4.0589   25.5181    9.9325 N   0  0  0  0  0  0  0  0  0  0  0  0
    1.2155   21.9076    7.5930 C   0  0  0  0  0  0  0  0  0  0  0  0
    0.3620   20.9627    6.8003 C   0  0  0  0  0  0  0  0  0  0  0  0
    1.1350   20.5956    8.3155 C   0  0  0  0  0  0  0  0  0  0  0  0
    0.5306   19.2267    8.2102 C   0  0  0  0  0  0  0  0  0  0  0  0
   -0.0738   17.8580    8.1049 O   0  0  0  0  0  0  0  0  0  0  0  0
   -0.9288   17.5044    6.9242 C   0  0  0  0  0  0  0  0  0  0  0  0
   -1.7837   17.1509    5.7435 O   0  0  0  0  0  0  0  0  0  0  0  0
    1.2137   17.0708   10.7432 H   0  0  0  0  0  0  0  0  0  0  0  0
    0.7476   18.1236    9.2872 H   0  0  0  0  0  0  0  0  0  0  0  0
    1.8220   18.5617   10.7756 H   0  0  0  0  0  0  0  0  0  0  0  0
    0.9480   18.9906    9.0530 H   0  0  0  0  0  0  0  0  0  0  0  0
    2.5435   19.0704   11.6345 H   0  0  0  0  0  0  0  0  0  0  0  0
    1.9367   18.7101   10.8678 H   0  0  0  0  0  0  0  0  0  0  0  0
    3.8318   20.1115   13.0822 H   0  0  0  0  0  0  0  0  0  0  0  0
    3.0412   19.1190   12.4242 H   0  0  0  0  0  0  0  0  0  0  0  0
    4.7624   22.1836   13.2673 H   0  0  0  0  0  0  0  0  0  0  0  0
    4.2468   20.8506   13.2854 H   0  0  0  0  0  0  0  0  0  0  0  0
    5.0273   24.2548   12.3545 H   0  0  0  0  0  0  0  0  0  0  0  0
    4.9506   23.0045   13.0428 H   0  0  0  0  0  0  0  0  0  0  0  0
    4.8797   24.4662   11.9730 H   0  0  0  0  0  0  0  0  0  0  0  0
    3.8844   22.3508   11.7091 H   0  0  0  0  0  0  0  0  0  0  0  0
    3.0668   21.5531   10.8797 H   0  0  0  0  0  0  0  0  0  0  0  0
    2.3863   21.2717    9.9399 H   0  0  0  0  0  0  0  0  0  0  0  0
    1.6433   21.6891    8.4415 H   0  0  0  0  0  0  0  0  0  0  0  0
    1.2576   22.9684    6.9709 H   0  0  0  0  0  0  0  0  0  0  0  0
    1.6634   24.5275    6.6242 H   0  0  0  0  0  0  0  0  0  0  0  0
    2.4201   26.0556    6.8770 H   0  0  0  0  0  0  0  0  0  0  0  0
    4.0701   27.0935    8.9240 H   0  0  0  0  0  0  0  0  0  0  0  0
    3.1300   27.8793    8.3056 H   0  0  0  0  0  0  0  0  0  0  0  0
    2.8333   25.5393    6.4608 H   0  0  0  0  0  0  0  0  0  0  0  0
    3.4662   28.5300    6.9902 H   0  0  0  0  0  0  0  0  0  0  0  0
    1.8346   26.3737    5.7037 H   0  0  0  0  0  0  0  0  0  0  0  0
    1.4608   27.2297    4.5301 H   0  0  0  0  0  0  0  0  0  0  0  0
    3.8503   30.6326    6.2505 H   0  0  0  0  0  0  0  0  0  0  0  0
    3.5215   28.7872    6.9122 H   0  0  0  0  0  0  0  0  0  0  0  0
    3.3532   31.6711    4.7530 H   0  0  0  0  0  0  0  0  0  0  0  0
    2.3291   31.9469    2.8841 H   0  0  0  0  0  0  0  0  0  0  0  0
    1.9015   31.1800    1.1817 H   0  0  0  0  0  0  0  0  0  0  0  0
    0.2183   29.2063    2.6776 H   0  0  0  0  0  0  0  0  0  0  0  0
    0.1483   28.5505    1.4776 H   0  0  0  0  0  0  0  0  0  0  0  0
    0.4741   31.2788    0.2872 H   0  0  0  0  0  0  0  0  0  0  0  0
   -0.9410   28.1441   -0.0795 H   0  0  0  0  0  0  0  0  0  0  0  0
   -1.9229   28.3819   -1.8297 H   0  0  0  0  0  0  0  0  0  0  0  0
   -1.9218   30.2383   -2.9650 H   0  0  0  0  0  0  0  0  0  0  0  0
    0.3132   31.8037   -0.2714 H   0  0  0  0  0  0  0  0  0  0  0  0
   -1.6595   31.3095   -3.1924 H   0  0  0  0  0  0  0  0  0  0  0  0
    0.7268   32.8968   -0.2650 H   0  0  0  0  0  0  0  0  0  0  0  0
    0.5356   35.8073   -2.3602 H   0  0  0  0  0  0  0  0  0  0  0  0
   -1.4596   33.4263   -4.1623 H   0  0  0  0  0  0  0  0  0  0  0  0
    1.0433   28.2155    3.1982 H   0  0  0  0  0  0  0  0  0  0  0  0
    4.8548   26.6528   10.5064 H   0  0  0  0  0  0  0  0  0  0  0  0
    0.6514   22.4453    6.3114 H   0  0  0  0  0  0  0  0  0  0  0  0
   -0.4915   20.0177    6.0075 H   0  0  0  0  0  0  0  0  0  0  0  0
    0.6777   21.7273    5.5489 H   0  0  0  0  0  0  0  0  0  0  0  0
   -0.1508   19.9922    7.8225 H   0  0  0  0  0  0  0  0  0  0  0  0
    0.2703   20.1682    7.1668 H   0  0  0  0  0  0  0  0  0  0  0  0
   -0.1053   19.6078    6.9061 H   0  0  0  0  0  0  0  0  0  0  0  0
    1.0014   18.5257    9.4500 H   0  0  0  0  0  0  0  0  0  0  0  0
   -1.1340   16.1283    7.4848 H   0  0  0  0  0  0  0  0  0  0  0  0
   -0.7236   18.8804    6.3635 H   0  0  0  0  0  0  0  0  0  0  0  0
   -2.3881   15.7821    5.6382 H   0  0  0  0  0  0  0  0  0  0  0  0
  1  2  1  0
  2  3  1  0
  3  4  1  0
  4  5  1  0
  5  6  1  0
  6  7  1  0
  7  8  1  0
  8  9  1  0
  9 10  1  0
 10 11  1  0
 11 12  1  0
 12 13  1  0
 13 14  1  0
 14 15  1  0
 15 16  1  0
 16 17  1  0
 17 18  1  0
 18 19  1  0
 19 20  1  0
 20 21  1  0
 21 22  1  0
 22 23  1  0
 23 24  1  0
 24 25  1  0
 25 26  1  0
 26 27  1  0
 18 28  1  0
 12 29  1  0
 10 30  1  0
 30 31  1  0
 30 32  1  0
 32 33  1  0
 33 34  1  0
 34 35  1  0
 35 36  1  0
 32  2  1  0
 29  7  1  0
 28 15  1  0
 28 17  1  0
 23 21  1  0
 27 24  1  0
 27 25  1  0
  1 37  1  0
  1 38  1  0
  1 39  1  0
  2 40  1  0
  3 41  1  0
  3 42  1  0
  4 43  1  0
  4 44  1  0
  5 45  1  0
  5 46  1  0
  6 47  1  0
  6 48  1  0
  7 49  1  0
  8 50  1  0
  8 51  1  0
  9 52  1  0
  9 53  1  0
 10 54  1  0
 11 55  1  0
 11 56  1  0
 12 57  1  0
 13 58  1  0
 13 59  1  0
 14 60  1  0
 14 61  1  0
 15 62  1  0
 16 63  1  0
 16 64  1  0
 17 65  1  0
 18 66  1  0
 19 67  1  0
 19 68  1  0
 20 69  1  0
 20 70  1  0
 21 71  1  0
 22 72  1  0
 22 73  1  0
 23 74  1  0
 24 75  1  0
 25 76  1  0
 26 77  1  0
 27 78  1  0
 28 79  1  0
 29 80  1  0
 30 81  1  0
 31 82  1  0
 31 83  1  0
 31 84  1  0
 32 85  1  0
 33 86  1  0
 33 87  1  0
 35 88  1  0
 35 89  1  0
 36 90  1  0
M  END
