
     RDKit          2D

 63 66  0  0  0  0  0  0  0  0999 V2000
    0.5248   30.9746    6.2326 C   0  0  0  0  0  0  0  0  0  0  0  0
   -0.7650   30.5653    5.5854 C   0  0  0  0  0  0  0  0  0  0  0  0
   -0.8479   29.2719    4.8303 C   0  0  0  0  0  0  0  0  0  0  0  0
   -0.9309   27.9784    4.0752 C   0  0  0  0  0  0  0  0  0  0  0  0
   -1.0139   26.6851    3.3201 C   0  0  0  0  0  0  0  0  0  0  0  0
   -1.0969   25.3916    2.5649 C   0  0  0  0  0  0  0  0  0  0  0  0
   -2.4628   26.9461    3.0323 C   0  0  0  0  0  0  0  0  0  0  0  0
   -3.8525   26.7489    2.5036 C   0  0  0  0  0  0  0  0  0  0  0  0
   -2.7960   25.7176    2.2387 C   0  0  0  0  0  0  0  0  0  0  0  0
    0.5970   29.0037    5.1307 C   0  0  0  0  0  0  0  0  0  0  0  0
    2.0419   28.7357    5.4312 C   0  0  0  0  0  0  0  0  0  0  0  0
    2.2116   27.4162    4.7381 C   0  0  0  0  0  0  0  0  0  0  0  0
    3.5412   26.7222    4.7617 C   0  0  0  0  0  0  0  0  0  0  0  0
    3.3716   28.0416    5.4547 C   0  0  0  0  0  0  0  0  0  0  0  0
    4.5315   28.6671    6.1712 C   0  0  0  0  0  0  0  0  0  0  0  0
    5.6914   29.2925    6.8878 C   0  0  0  0  0  0  0  0  0  0  0  0
    6.5570   28.1301    6.5011 C   0  0  0  0  0  0  0  0  0  0  0  0
    7.7169   28.7555    7.2177 C   0  0  0  0  0  0  0  0  0  0  0  0
    8.8768   29.3809    7.9342 N   0  0  0  0  0  0  0  0  0  0  0  0
    9.3363   28.8222    9.2482 C   0  0  0  0  0  0  0  0  0  0  0  0
    9.7958   28.2634   10.5623 C   0  0  0  0  0  0  0  0  0  0  0  0
   10.2552   27.7046   11.8763 C   0  0  0  0  0  0  0  0  0  0  0  0
   10.7147   27.1459   13.1903 C   0  0  0  0  0  0  0  0  0  0  0  0
    6.8513   29.9179    7.6043 C   0  0  0  0  0  0  0  0  0  0  0  0
    0.6076   32.2681    6.9877 H   0  0  0  0  0  0  0  0  0  0  0  0
    1.7317   30.0905    6.1248 H   0  0  0  0  0  0  0  0  0  0  0  0
   -1.8664   31.5627    5.7911 H   0  0  0  0  0  0  0  0  0  0  0  0
   -2.2929   29.5400    4.5299 H   0  0  0  0  0  0  0  0  0  0  0  0
   -1.9710   28.2839    3.9310 H   0  0  0  0  0  0  0  0  0  0  0  0
    0.4958   27.5595    4.2730 H   0  0  0  0  0  0  0  0  0  0  0  0
    0.4140   26.2684    3.5137 H   0  0  0  0  0  0  0  0  0  0  0  0
   -1.1642   24.3440    1.9533 H   0  0  0  0  0  0  0  0  0  0  0  0
   -1.8544   25.3604    2.3185 H   0  0  0  0  0  0  0  0  0  0  0  0
    0.3514   25.1296    2.8545 H   0  0  0  0  0  0  0  0  0  0  0  0
   -2.7136   27.9033    3.4974 H   0  0  0  0  0  0  0  0  0  0  0  0
   -4.5051   27.9995    3.0137 H   0  0  0  0  0  0  0  0  0  0  0  0
   -5.0157   26.1174    1.7977 H   0  0  0  0  0  0  0  0  0  0  0  0
   -3.5924   24.7280    1.4408 H   0  0  0  0  0  0  0  0  0  0  0  0
   -2.0384   25.1011    2.1181 H   0  0  0  0  0  0  0  0  0  0  0  0
    0.6912   27.6880    4.4167 H   0  0  0  0  0  0  0  0  0  0  0  0
    0.8552   30.2542    5.9180 H   0  0  0  0  0  0  0  0  0  0  0  0
    2.3742   29.9620    6.2285 H   0  0  0  0  0  0  0  0  0  0  0  0
    1.1659   26.6538    3.9799 H   0  0  0  0  0  0  0  0  0  0  0  0
    3.2090   25.4959    3.9643 H   0  0  0  0  0  0  0  0  0  0  0  0
    4.9862   26.4541    5.0621 H   0  0  0  0  0  0  0  0  0  0  0  0
    3.6313   29.7539    6.6798 H   0  0  0  0  0  0  0  0  0  0  0  0
    5.2836   27.5122    5.5791 H   0  0  0  0  0  0  0  0  0  0  0  0
    4.8258   30.4549    7.2744 H   0  0  0  0  0  0  0  0  0  0  0  0
    7.4226   26.9676    6.1145 H   0  0  0  0  0  0  0  0  0  0  0  0
    5.5112   27.3677    5.7428 H   0  0  0  0  0  0  0  0  0  0  0  0
    8.5825   27.5931    6.8311 H   0  0  0  0  0  0  0  0  0  0  0  0
    9.6861   30.5610    7.4841 H   0  0  0  0  0  0  0  0  0  0  0  0
    8.2591   27.7805    9.1819 H   0  0  0  0  0  0  0  0  0  0  0  0
   10.4135   29.8639    9.3145 H   0  0  0  0  0  0  0  0  0  0  0  0
    8.7149   27.2253   10.4988 H   0  0  0  0  0  0  0  0  0  0  0  0
   10.8766   29.3015   10.6258 H   0  0  0  0  0  0  0  0  0  0  0  0
    8.8860   27.1407   12.1153 H   0  0  0  0  0  0  0  0  0  0  0  0
   11.6245   28.2685   11.6373 H   0  0  0  0  0  0  0  0  0  0  0  0
   11.1742   26.5871   14.5043 H   0  0  0  0  0  0  0  0  0  0  0  0
   11.7892   28.1902   13.2587 H   0  0  0  0  0  0  0  0  0  0  0  0
    9.6402   26.1015   13.1219 H   0  0  0  0  0  0  0  0  0  0  0  0
    5.9857   31.0804    7.9909 H   0  0  0  0  0  0  0  0  0  0  0  0
    7.8970   30.6805    8.3626 H   0  0  0  0  0  0  0  0  0  0  0  0
  1  2  2  3
  2  3  1  0
  3  4  1  0
  4  5  1  0
  5  6  1  0
  5  7  1  0
  7  8  1  0
  8  9  1  0
  3 10  1  0
 10 11  1  0
 11 12  1  0
 12 13  1  0
 13 14  1  0
 14 15  1  0
 15 16  1  0
 16 17  1  0
 17 18  1  0
 18 19  1  0
 19 20  1  0
 20 21  1  0
 21 22  1  0
 22 23  1  0
 18 24  1  0
  9  7  1  0
 14 11  1  0
 24 16  1  0
 14 12  1  0
  1 25  1  0
  1 26  1  0
  2 27  1  0
  3 28  1  0
  4 29  1  0
  4 30  1  0
  5 31  1  0
  6 32  1  0
  6 33  1  0
  6 34  1  0
  7 35  1  0
  8 36  1  0
  8 37  1  0
  9 38  1  0
  9 39  1  0
 10 40  1  0
 10 41  1  0
 11 42  1  0
 12 43  1  0
 13 44  1  0
 13 45  1  0
 15 46  1  0
 15 47  1  0
 16 48  1  0
 17 49  1  0
 17 50  1  0
 18 51  1  0
 19 52  1  0
 20 53  1  0
 20 54  1  0
 21 55  1  0
 21 56  1  0
 22 57  1  0
 22 58  1  0
 23 59  1  0
 23 60  1  0
 23 61  1  0
 24 62  1  0
 24 63  1  0
M  END
