
     RDKit          2D

 38 38  0  0  0  0  0  0  0  0999 V2000
   17.8926  -18.4133   -1.1068 C   0  0  0  0  0  0  0  0  0  0  0  0
   18.1552  -16.9671   -1.4056 C   0  0  0  0  0  0  0  0  0  0  0  0
   18.4179  -15.5208   -1.7043 C   0  0  0  0  0  0  0  0  0  0  0  0
   18.6806  -14.0746   -2.0031 C   0  0  0  0  0  0  0  0  0  0  0  0
   18.1015  -15.7621   -3.1506 C   0  0  0  0  0  0  0  0  0  0  0  0
   17.7851  -16.0033   -4.5968 C   0  0  0  0  0  0  0  0  0  0  0  0
   17.4687  -16.2446   -6.0432 C   0  0  0  0  0  0  0  0  0  0  0  0
   17.2054  -17.6908   -5.7443 C   0  0  0  0  0  0  0  0  0  0  0  0
   16.8890  -17.9320   -7.1906 C   0  0  0  0  0  0  0  0  0  0  0  0
   17.1618  -16.4879   -7.4910 O   0  0  0  0  0  0  0  0  0  0  0  0
   16.5727  -18.1731   -8.6368 C   0  0  0  0  0  0  0  0  0  0  0  0
   16.2563  -18.4143  -10.0831 O   0  0  0  0  0  0  0  0  0  0  0  0
   16.3320  -17.2839  -11.0661 C   0  0  0  0  0  0  0  0  0  0  0  0
   16.4077  -16.1534  -12.0492 F   0  0  0  0  0  0  0  0  0  0  0  0
   17.5219  -17.4495   -4.2980 C   0  0  0  0  0  0  0  0  0  0  0  0
   17.6298  -19.8597   -0.8081 H   0  0  0  0  0  0  0  0  0  0  0  0
   19.0972  -18.4477   -0.2137 H   0  0  0  0  0  0  0  0  0  0  0  0
   16.6879  -18.3791   -2.0000 H   0  0  0  0  0  0  0  0  0  0  0  0
   18.8366  -16.9055   -0.9965 H   0  0  0  0  0  0  0  0  0  0  0  0
   18.8026  -17.0930   -0.9577 H   0  0  0  0  0  0  0  0  0  0  0  0
   18.7343  -15.2796   -0.2581 H   0  0  0  0  0  0  0  0  0  0  0  0
   18.9433  -12.6282   -2.3018 H   0  0  0  0  0  0  0  0  0  0  0  0
   19.5172  -13.9702   -0.7624 H   0  0  0  0  0  0  0  0  0  0  0  0
   17.8824  -14.0018   -3.2710 H   0  0  0  0  0  0  0  0  0  0  0  0
   17.8799  -17.1683   -2.6779 H   0  0  0  0  0  0  0  0  0  0  0  0
   18.3231  -14.3558   -3.6233 H   0  0  0  0  0  0  0  0  0  0  0  0
   18.0484  -14.5572   -4.8958 H   0  0  0  0  0  0  0  0  0  0  0  0
   17.7320  -14.7984   -6.3419 H   0  0  0  0  0  0  0  0  0  0  0  0
   17.1867  -16.3079   -7.5150 H   0  0  0  0  0  0  0  0  0  0  0  0
   16.9422  -19.1370   -5.4454 H   0  0  0  0  0  0  0  0  0  0  0  0
   16.5798  -19.3947   -7.0687 H   0  0  0  0  0  0  0  0  0  0  0  0
   17.0733  -15.8114   -8.8268 H   0  0  0  0  0  0  0  0  0  0  0  0
   16.8026  -16.7687   -9.1109 H   0  0  0  0  0  0  0  0  0  0  0  0
   16.3022  -19.6177   -8.3368 H   0  0  0  0  0  0  0  0  0  0  0  0
   16.2354  -18.2624  -12.1989 H   0  0  0  0  0  0  0  0  0  0  0  0
   16.4286  -16.3053   -9.9333 H   0  0  0  0  0  0  0  0  0  0  0  0
   17.2586  -18.8957   -3.9992 H   0  0  0  0  0  0  0  0  0  0  0  0
   17.8038  -17.3863   -2.8261 H   0  0  0  0  0  0  0  0  0  0  0  0
  1  2  1  0
  2  3  1  0
  3  4  1  0
  3  5  1  0
  5  6  1  0
  6  7  1  0
  7  8  1  0
  8  9  1  0
  9 10  1  0
  9 11  1  0
 11 12  1  0
 12 13  1  0
 13 14  1  0
  8 15  1  0
 15  6  1  0
  1 16  1  0
  1 17  1  0
  1 18  1  0
  2 19  1  0
  2 20  1  0
  3 21  1  0
  4 22  1  0
  4 23  1  0
  4 24  1  0
  5 25  1  0
  5 26  1  0
  6 27  1  0
  7 28  1  0
  7 29  1  0
  8 30  1  0
  9 31  1  0
 10 32  1  0
 11 33  1  0
 11 34  1  0
 13 35  1  0
 13 36  1  0
 15 37  1  0
 15 38  1  0
M  END
