
     RDKit          2D

 90 96  0  0  0  0  0  0  0  0999 V2000
   20.3519  -21.1762  -15.1056 C   0  0  0  0  0  0  0  0  0  0  0  0
   18.8537  -21.1016  -15.1178 C   0  0  0  0  0  0  0  0  0  0  0  0
   17.3556  -21.0270  -15.1299 C   0  0  0  0  0  0  0  0  0  0  0  0
   15.8576  -20.9525  -15.1421 C   0  0  0  0  0  0  0  0  0  0  0  0
   14.3594  -20.8779  -15.1543 O   0  0  0  0  0  0  0  0  0  0  0  0
   18.8442  -21.0484  -13.6187 C   0  0  0  0  0  0  0  0  0  0  0  0
   18.8346  -20.9951  -12.1196 C   0  0  0  0  0  0  0  0  0  0  0  0
   18.8250  -20.9419  -10.6207 C   0  0  0  0  0  0  0  0  0  0  0  0
   18.3037  -20.8663   -9.2162 C   0  0  0  0  0  0  0  0  0  0  0  0
   17.8829  -20.8982  -10.7195 C   0  0  0  0  0  0  0  0  0  0  0  0
   17.0531  -20.9006  -11.9690 C   0  0  0  0  0  0  0  0  0  0  0  0
   19.0366  -20.9896  -11.6737 C   0  0  0  0  0  0  0  0  0  0  0  0
   19.9665  -21.0774  -12.8474 O   0  0  0  0  0  0  0  0  0  0  0  0
   19.4141  -21.0989  -14.2419 C   0  0  0  0  0  0  0  0  0  0  0  0
   20.8070  -21.1823  -14.7923 C   0  0  0  0  0  0  0  0  0  0  0  0
   20.2547  -21.2037  -16.1867 C   0  0  0  0  0  0  0  0  0  0  0  0
   18.8618  -21.1203  -15.6363 C   0  0  0  0  0  0  0  0  0  0  0  0
   17.4690  -21.0369  -15.0858 C   0  0  0  0  0  0  0  0  0  0  0  0
   16.0761  -20.9534  -14.5354 C   0  0  0  0  0  0  0  0  0  0  0  0
   14.6833  -20.8700  -13.9849 C   0  0  0  0  0  0  0  0  0  0  0  0
   13.2904  -20.7866  -13.4345 C   0  0  0  0  0  0  0  0  0  0  0  0
   12.9882  -20.8243  -14.9033 C   0  0  0  0  0  0  0  0  0  0  0  0
   11.5661  -20.7756  -15.3780 C   0  0  0  0  0  0  0  0  0  0  0  0
   10.4462  -20.6891  -14.3838 C   0  0  0  0  0  0  0  0  0  0  0  0
    9.3263  -20.6027  -13.3896 C   0  0  0  0  0  0  0  0  0  0  0  0
   10.7484  -20.6514  -12.9150 C   0  0  0  0  0  0  0  0  0  0  0  0
   11.0505  -20.6137  -11.4463 C   0  0  0  0  0  0  0  0  0  0  0  0
   12.1705  -20.7002  -12.4404 C   0  0  0  0  0  0  0  0  0  0  0  0
   20.3021  -21.0246  -10.8690 C   0  0  0  0  0  0  0  0  0  0  0  0
   20.8235  -21.1002  -12.2734 C   0  0  0  0  0  0  0  0  0  0  0  0
   21.3448  -21.1757  -13.6779 O   0  0  0  0  0  0  0  0  0  0  0  0
   21.2577  -21.0318   -9.7128 C   0  0  0  0  0  0  0  0  0  0  0  0
   20.7364  -20.9562   -8.3084 C   0  0  0  0  0  0  0  0  0  0  0  0
   20.9871  -20.9167   -6.8300 C   0  0  0  0  0  0  0  0  0  0  0  0
   19.5101  -20.8340   -6.5817 C   0  0  0  0  0  0  0  0  0  0  0  0
   19.2593  -20.8735   -8.0601 C   0  0  0  0  0  0  0  0  0  0  0  0
   21.8399  -21.2565  -15.2762 H   0  0  0  0  0  0  0  0  0  0  0  0
   19.9986  -21.2084  -16.5631 H   0  0  0  0  0  0  0  0  0  0  0  0
   20.8798  -21.1545  -13.7017 H   0  0  0  0  0  0  0  0  0  0  0  0
   18.6806  -21.1454  -16.6071 H   0  0  0  0  0  0  0  0  0  0  0  0
   17.1826  -21.0693  -16.6193 H   0  0  0  0  0  0  0  0  0  0  0  0
   16.9838  -20.9588  -13.6783 H   0  0  0  0  0  0  0  0  0  0  0  0
   16.0504  -20.9981  -16.6290 H   0  0  0  0  0  0  0  0  0  0  0  0
   15.6646  -20.9068  -13.6553 H   0  0  0  0  0  0  0  0  0  0  0  0
   13.7829  -20.8965  -16.5390 H   0  0  0  0  0  0  0  0  0  0  0  0
   20.3321  -21.1328  -13.7892 H   0  0  0  0  0  0  0  0  0  0  0  0
   17.5172  -20.9540  -12.9257 H   0  0  0  0  0  0  0  0  0  0  0  0
   20.1618  -21.0855  -12.8128 H   0  0  0  0  0  0  0  0  0  0  0  0
   17.4395  -20.9451  -12.6684 H   0  0  0  0  0  0  0  0  0  0  0  0
   17.4604  -20.8954  -11.2416 H   0  0  0  0  0  0  0  0  0  0  0  0
   16.8268  -20.7836   -8.9679 H   0  0  0  0  0  0  0  0  0  0  0  0
   16.5557  -20.8073  -10.0265 H   0  0  0  0  0  0  0  0  0  0  0  0
   15.9462  -20.8808  -12.9811 H   0  0  0  0  0  0  0  0  0  0  0  0
   15.8058  -20.8090  -11.1409 H   0  0  0  0  0  0  0  0  0  0  0  0
   18.1900  -20.9918  -12.9433 H   0  0  0  0  0  0  0  0  0  0  0  0
   17.9656  -20.9729  -12.7237 H   0  0  0  0  0  0  0  0  0  0  0  0
   18.0990  -21.0135  -13.5256 H   0  0  0  0  0  0  0  0  0  0  0  0
   22.2568  -21.2625  -15.1686 H   0  0  0  0  0  0  0  0  0  0  0  0
   21.6800  -21.1817  -13.5725 H   0  0  0  0  0  0  0  0  0  0  0  0
   19.7023  -21.2251  -17.5812 H   0  0  0  0  0  0  0  0  0  0  0  0
   21.6475  -21.2871  -16.7372 H   0  0  0  0  0  0  0  0  0  0  0  0
   18.4833  -21.1517  -17.0874 H   0  0  0  0  0  0  0  0  0  0  0  0
   17.0904  -21.0689  -16.5369 H   0  0  0  0  0  0  0  0  0  0  0  0
   17.8474  -21.0048  -13.6347 H   0  0  0  0  0  0  0  0  0  0  0  0
   15.3579  -20.9677  -15.8522 H   0  0  0  0  0  0  0  0  0  0  0  0
   16.0926  -20.9005  -13.0364 H   0  0  0  0  0  0  0  0  0  0  0  0
   13.9650  -20.8839  -15.3018 H   0  0  0  0  0  0  0  0  0  0  0  0
   15.2358  -20.8458  -12.5906 H   0  0  0  0  0  0  0  0  0  0  0  0
   14.0763  -20.7779  -12.1569 H   0  0  0  0  0  0  0  0  0  0  0  0
   13.0238  -20.8786  -16.4019 H   0  0  0  0  0  0  0  0  0  0  0  0
   14.4800  -20.8879  -14.7607 H   0  0  0  0  0  0  0  0  0  0  0  0
   10.3913  -20.7543  -16.3103 H   0  0  0  0  0  0  0  0  0  0  0  0
   12.2780  -20.8546  -16.6959 H   0  0  0  0  0  0  0  0  0  0  0  0
   11.1411  -20.6744  -13.0545 H   0  0  0  0  0  0  0  0  0  0  0  0
    8.1514  -20.5814  -14.3219 H   0  0  0  0  0  0  0  0  0  0  0  0
    8.6144  -20.5236  -12.0716 H   0  0  0  0  0  0  0  0  0  0  0  0
    9.6577  -20.5303  -10.8958 H   0  0  0  0  0  0  0  0  0  0  0  0
   11.8365  -20.6050  -10.1686 H   0  0  0  0  0  0  0  0  0  0  0  0
   13.1659  -20.7065  -11.3184 H   0  0  0  0  0  0  0  0  0  0  0  0
   22.2809  -21.1608  -11.9244 H   0  0  0  0  0  0  0  0  0  0  0  0
   19.5868  -21.0681  -13.1219 H   0  0  0  0  0  0  0  0  0  0  0  0
   22.8217  -21.2584  -13.9262 H   0  0  0  0  0  0  0  0  0  0  0  0
   22.6330  -21.0797   -9.1159 H   0  0  0  0  0  0  0  0  0  0  0  0
   22.3599  -21.1227  -10.7262 H   0  0  0  0  0  0  0  0  0  0  0  0
   22.1997  -21.0181   -7.9847 H   0  0  0  0  0  0  0  0  0  0  0  0
   21.2378  -20.8773   -5.3516 H   0  0  0  0  0  0  0  0  0  0  0  0
   22.4641  -20.9995   -7.0783 H   0  0  0  0  0  0  0  0  0  0  0  0
   18.0331  -20.7513   -6.3334 H   0  0  0  0  0  0  0  0  0  0  0  0
   19.7609  -20.7945   -5.1033 H   0  0  0  0  0  0  0  0  0  0  0  0
   17.8976  -20.7834   -7.4376 H   0  0  0  0  0  0  0  0  0  0  0  0
  1  2  1  0
  2  3  1  0
  3  4  1  0
  4  5  1  0
  2  6  1  0
  6  7  1  0
  7  8  1  0
  8  9  1  0
  9 10  1  0
 10 11  1  0
 10 12  1  0
 12 13  1  0
 13 14  1  0
 14 15  1  0
 15 16  1  0
 16 17  1  0
 17 18  1  0
 18 19  1  0
 19 20  1  0
 20 21  1  0
 21 22  1  0
 22 23  1  0
 23 24  1  0
 24 25  1  0
 25 26  1  0
 26 27  1  0
 27 28  1  0
 12 29  1  0
 29 30  1  0
 30 31  1  0
 29 32  1  0
 32 33  1  0
 33 34  1  0
 34 35  1  0
 35 36  1  0
 29  8  1  0
 36 33  1  0
 36  9  1  0
 17 14  1  0
 28 21  1  0
 26 24  1  0
 28 26  1  0
  1 37  1  0
  1 38  1  0
  1 39  1  0
  2 40  1  0
  3 41  1  0
  3 42  1  0
  4 43  1  0
  4 44  1  0
  5 45  1  0
  6 46  1  0
  6 47  1  0
  7 48  1  0
  7 49  1  0
  8 50  1  0
  9 51  1  0
 10 52  1  0
 11 53  1  0
 11 54  1  0
 11 55  1  0
 12 56  1  0
 14 57  1  0
 15 58  1  0
 15 59  1  0
 16 60  1  0
 16 61  1  0
 17 62  1  0
 18 63  1  0
 18 64  1  0
 19 65  1  0
 19 66  1  0
 20 67  1  0
 20 68  1  0
 21 69  1  0
 22 70  1  0
 22 71  1  0
 23 72  1  0
 23 73  1  0
 24 74  1  0
 25 75  1  0
 25 76  1  0
 27 77  1  0
 27 78  1  0
 28 79  1  0
 30 80  1  0
 30 81  1  0
 31 82  1  0
 32 83  1  0
 32 84  1  0
 33 85  1  0
 34 86  1  0
 34 87  1  0
 35 88  1  0
 35 89  1  0
 36 90  1  0
M  END
