
     RDKit          2D

 34 35  0  0  0  0  0  0  0  0999 V2000
   -0.0812   22.4824    7.6637 C   0  0  0  0  0  0  0  0  0  0  0  0
    1.0984   23.2830    7.1974 C   0  0  0  0  0  0  0  0  0  0  0  0
    2.2782   24.0835    6.7311 C   0  0  0  0  0  0  0  0  0  0  0  0
    3.4579   24.8841    6.2649 S   0  0  0  0  0  0  0  0  0  0  0  0
    2.5535   25.7155    5.4040 C   0  0  0  0  0  0  0  0  0  0  0  0
    1.3738   24.9149    5.8703 C   0  0  0  0  0  0  0  0  0  0  0  0
    0.4695   25.7463    5.0095 C   0  0  0  0  0  0  0  0  0  0  0  0
    0.1941   24.1143    6.3366 C   0  0  0  0  0  0  0  0  0  0  0  0
   -1.2238   23.6464    6.4803 C   0  0  0  0  0  0  0  0  0  0  0  0
   -0.9013   24.7939    5.5697 C   0  0  0  0  0  0  0  0  0  0  0  0
   -2.2744   25.1135    5.0573 C   0  0  0  0  0  0  0  0  0  0  0  0
   -3.6474   25.4331    4.5448 C   0  0  0  0  0  0  0  0  0  0  0  0
   -5.0205   25.7527    4.0323 N   0  0  0  0  0  0  0  0  0  0  0  0
   -1.2610   21.6819    8.1299 H   0  0  0  0  0  0  0  0  0  0  0  0
    0.8232   21.6507    8.5239 H   0  0  0  0  0  0  0  0  0  0  0  0
   -1.1279   23.0345    7.0139 H   0  0  0  0  0  0  0  0  0  0  0  0
    0.4804   23.6087    6.8134 H   0  0  0  0  0  0  0  0  0  0  0  0
    2.0028   22.4517    8.0582 H   0  0  0  0  0  0  0  0  0  0  0  0
    3.1826   23.2522    7.5919 H   0  0  0  0  0  0  0  0  0  0  0  0
    3.7333   26.5160    4.9378 H   0  0  0  0  0  0  0  0  0  0  0  0
    1.7997   26.6382    4.4928 H   0  0  0  0  0  0  0  0  0  0  0  0
   -0.4350   26.5776    4.1487 H   0  0  0  0  0  0  0  0  0  0  0  0
   -0.8941   25.1711    5.2541 H   0  0  0  0  0  0  0  0  0  0  0  0
    1.5302   26.6418    4.4413 H   0  0  0  0  0  0  0  0  0  0  0  0
    0.5404   23.0293    7.3128 H   0  0  0  0  0  0  0  0  0  0  0  0
   -1.0305   22.5262    7.4590 H   0  0  0  0  0  0  0  0  0  0  0  0
   -2.7057   23.4277    6.4024 H   0  0  0  0  0  0  0  0  0  0  0  0
   -0.4291   25.9225    4.7017 H   0  0  0  0  0  0  0  0  0  0  0  0
   -3.0064   24.0489    5.8192 H   0  0  0  0  0  0  0  0  0  0  0  0
   -1.7056   26.2254    4.2266 H   0  0  0  0  0  0  0  0  0  0  0  0
   -3.0783   26.5439    3.7126 H   0  0  0  0  0  0  0  0  0  0  0  0
   -4.2166   24.3224    5.3769 H   0  0  0  0  0  0  0  0  0  0  0  0
   -6.2002   24.9521    4.4986 H   0  0  0  0  0  0  0  0  0  0  0  0
   -5.2138   26.8729    3.0536 H   0  0  0  0  0  0  0  0  0  0  0  0
  1  2  1  0
  2  3  1  0
  3  4  1  0
  4  5  1  0
  5  6  1  0
  6  7  1  0
  6  8  1  0
  8  9  1  0
  9 10  1  0
 10 11  1  0
 11 12  1  0
 12 13  1  0
  6  3  1  0
 10  8  1  0
  1 14  1  0
  1 15  1  0
  1 16  1  0
  2 17  1  0
  2 18  1  0
  3 19  1  0
  5 20  1  0
  5 21  1  0
  7 22  1  0
  7 23  1  0
  7 24  1  0
  8 25  1  0
  9 26  1  0
  9 27  1  0
 10 28  1  0
 11 29  1  0
 11 30  1  0
 12 31  1  0
 12 32  1  0
 13 33  1  0
 13 34  1  0
M  END
