
     RDKit          2D

108113  0  0  0  0  0  0  0  0999 V2000
   -8.6982   28.1124    9.2143 C   0  0  0  0  0  0  0  0  0  0  0  0
   -8.5496   29.5953    9.3841 C   0  0  0  0  0  0  0  0  0  0  0  0
   -7.2378   30.1717    9.8276 C   0  0  0  0  0  0  0  0  0  0  0  0
   -7.8237   31.5513    9.7679 O   0  0  0  0  0  0  0  0  0  0  0  0
   -5.9259   30.7482   10.2712 C   0  0  0  0  0  0  0  0  0  0  0  0
   -6.2751   32.2068   10.2891 C   0  0  0  0  0  0  0  0  0  0  0  0
   -7.6567   32.6520    9.9108 C   0  0  0  0  0  0  0  0  0  0  0  0
   -5.2427   33.2204   10.6854 N   0  0  0  0  0  0  0  0  0  0  0  0
   -4.0252   33.9832   11.1163 C   0  0  0  0  0  0  0  0  0  0  0  0
   -2.9235   32.9960   11.3646 C   0  0  0  0  0  0  0  0  0  0  0  0
   -3.4602   31.6230   11.0872 C   0  0  0  0  0  0  0  0  0  0  0  0
   -2.0787   31.1778   11.4655 C   0  0  0  0  0  0  0  0  0  0  0  0
   -2.2322   29.9639   10.5978 C   0  0  0  0  0  0  0  0  0  0  0  0
   -2.3857   28.7500    9.7302 N   0  0  0  0  0  0  0  0  0  0  0  0
   -1.6675   27.4809   10.0819 N   0  0  0  0  0  0  0  0  0  0  0  0
   -1.8211   26.2671    9.2143 C   0  0  0  0  0  0  0  0  0  0  0  0
   -2.7390   27.0316    8.3071 C   0  0  0  0  0  0  0  0  0  0  0  0
   -3.6570   27.7961    7.4000 C   0  0  0  0  0  0  0  0  0  0  0  0
   -4.5749   28.5606    6.4929 C   0  0  0  0  0  0  0  0  0  0  0  0
   -0.9031   25.5025   10.1214 C   0  0  0  0  0  0  0  0  0  0  0  0
       nan       nan       nan C   0  0  0  0  0  0  0  0  0  0  0  0
   -0.8394   24.3890    9.1184 Si  0  0  0  0  0  4  0  0  0  0  0  0
   -0.7758   23.2754    8.1155 C   0  0  0  0  0  0  0  0  0  0  0  0
    0.1422   22.5109    9.0226 O   0  0  0  0  0  0  0  0  0  0  0  0
   -1.6937   24.0399    7.2084 C   0  0  0  0  0  0  0  0  0  0  0  0
   -1.8891   23.0257    6.1206 C   0  0  0  0  0  0  0  0  0  0  0  0
   -2.2669   22.2323    4.9050 C   0  0  0  0  0  0  0  0  0  0  0  0
   -1.5872   20.8980    4.9926 C   0  0  0  0  0  0  0  0  0  0  0  0
   -0.7893   20.8668    6.2625 C   0  0  0  0  0  0  0  0  0  0  0  0
   -0.4197   19.4849    5.8111 C   0  0  0  0  0  0  0  0  0  0  0  0
   -0.9760   22.1818    6.9595 C   0  0  0  0  0  0  0  0  0  0  0  0
   -2.5439   25.1566    6.6790 C   0  0  0  0  0  0  0  0  0  0  0  0
   -1.8172   25.3196    7.9811 C   0  0  0  0  0  0  0  0  0  0  0  0
   -0.9421   24.9995    9.1565 C   0  0  0  0  0  0  0  0  0  0  0  0
   -2.2446   26.7104    8.3455 C   0  0  0  0  0  0  0  0  0  0  0  0
   -1.7539   27.3368    9.6172 C   0  0  0  0  0  0  0  0  0  0  0  0
   -0.8507   29.5187   10.9762 C   0  0  0  0  0  0  0  0  0  0  0  0
   -0.6971   30.7326   11.8439 C   0  0  0  0  0  0  0  0  0  0  0  0
   -0.5436   31.9465   12.7116 C   0  0  0  0  0  0  0  0  0  0  0  0
    0.8848   31.5747   12.9790 O   0  0  0  0  0  0  0  0  0  0  0  0
   -0.3900   33.1604   13.5792 C   0  0  0  0  0  0  0  0  0  0  0  0
   -0.2365   34.3743   14.4469 C   0  0  0  0  0  0  0  0  0  0  0  0
    1.1021   33.0325   13.4942 N   0  0  0  0  0  0  0  0  0  0  0  0
   -4.8936   31.7616   10.6674 C   0  0  0  0  0  0  0  0  0  0  0  0
  -10.0101   27.5359    8.7707 H   0  0  0  0  0  0  0  0  0  0  0  0
   -7.6464   27.0677    9.4428 H   0  0  0  0  0  0  0  0  0  0  0  0
   -9.7130   30.5018    9.1104 H   0  0  0  0  0  0  0  0  0  0  0  0
   -6.4963   28.8727    9.9410 H   0  0  0  0  0  0  0  0  0  0  0  0
   -9.2529   31.7418    9.3539 H   0  0  0  0  0  0  0  0  0  0  0  0
   -5.1211   29.4897   10.4073 H   0  0  0  0  0  0  0  0  0  0  0  0
   -9.0382   33.0972    9.5325 H   0  0  0  0  0  0  0  0  0  0  0  0
   -7.1997   34.0807    9.9232 H   0  0  0  0  0  0  0  0  0  0  0  0
   -8.4344   31.3736    9.8072 H   0  0  0  0  0  0  0  0  0  0  0  0
   -4.9110   35.1822   10.9507 H   0  0  0  0  0  0  0  0  0  0  0  0
   -2.9928   34.9967   11.5125 H   0  0  0  0  0  0  0  0  0  0  0  0
   -2.2727   34.3121   11.6715 H   0  0  0  0  0  0  0  0  0  0  0  0
   -1.5816   32.4281   11.7207 H   0  0  0  0  0  0  0  0  0  0  0  0
   -3.8787   30.2036   10.8415 H   0  0  0  0  0  0  0  0  0  0  0  0
   -2.5619   30.1077   10.5321 H   0  0  0  0  0  0  0  0  0  0  0  0
   -3.6222   30.2578   10.1165 H   0  0  0  0  0  0  0  0  0  0  0  0
   -3.2907   28.9795    8.5561 H   0  0  0  0  0  0  0  0  0  0  0  0
   -0.8421   27.6009   11.3286 H   0  0  0  0  0  0  0  0  0  0  0  0
   -2.2935   25.4079    8.0791 H   0  0  0  0  0  0  0  0  0  0  0  0
   -2.3986   26.1026    7.1797 H   0  0  0  0  0  0  0  0  0  0  0  0
   -3.2914   28.1180    9.1815 H   0  0  0  0  0  0  0  0  0  0  0  0
   -4.0791   26.6364    6.5474 H   0  0  0  0  0  0  0  0  0  0  0  0
   -3.4587   29.1422    8.0314 H   0  0  0  0  0  0  0  0  0  0  0  0
   -5.4544   29.1988    5.4587 H   0  0  0  0  0  0  0  0  0  0  0  0
   -4.3152   27.5709    5.3960 H   0  0  0  0  0  0  0  0  0  0  0  0
   -4.7208   29.4498    7.6921 H   0  0  0  0  0  0  0  0  0  0  0  0
   -0.7428   26.3980   11.3140 H   0  0  0  0  0  0  0  0  0  0  0  0
       nan       nan       nan H   0  0  0  0  0  0  0  0  0  0  0  0
       nan       nan       nan H   0  0  0  0  0  0  0  0  0  0  0  0
       nan       nan       nan H   0  0  0  0  0  0  0  0  0  0  0  0
    0.3270   23.6650    9.7228 H   0  0  0  0  0  0  0  0  0  0  0  0
   -2.0060   25.1129    8.5140 H   0  0  0  0  0  0  0  0  0  0  0  0
   -0.4919   22.0100    7.3618 H   0  0  0  0  0  0  0  0  0  0  0  0
    0.5696   21.1200    8.6581 H   0  0  0  0  0  0  0  0  0  0  0  0
   -2.7901   23.9630    5.3723 H   0  0  0  0  0  0  0  0  0  0  0  0
   -3.0602   23.4540    4.5475 H   0  0  0  0  0  0  0  0  0  0  0  0
   -2.8105   21.6942    3.6146 H   0  0  0  0  0  0  0  0  0  0  0  0
   -2.2729   20.6389    3.6839 H   0  0  0  0  0  0  0  0  0  0  0  0
   -1.0508   19.5096    4.8067 H   0  0  0  0  0  0  0  0  0  0  0  0
    0.0858   20.5467    7.4380 H   0  0  0  0  0  0  0  0  0  0  0  0
   -0.0501   18.1030    5.3597 H   0  0  0  0  0  0  0  0  0  0  0  0
    0.3703   19.4782    7.0862 H   0  0  0  0  0  0  0  0  0  0  0  0
    0.4604   19.1413    6.9762 H   0  0  0  0  0  0  0  0  0  0  0  0
   -0.0618   21.5869    7.9893 H   0  0  0  0  0  0  0  0  0  0  0  0
   -0.6425   23.0340    8.1481 H   0  0  0  0  0  0  0  0  0  0  0  0
   -3.1255   24.6866    5.3787 H   0  0  0  0  0  0  0  0  0  0  0  0
   -3.2939   26.4321    6.4326 H   0  0  0  0  0  0  0  0  0  0  0  0
   -0.0254   24.3609   10.1573 H   0  0  0  0  0  0  0  0  0  0  0  0
   -1.3263   26.3843    9.5863 H   0  0  0  0  0  0  0  0  0  0  0  0
   -0.3674   23.6190    9.0388 H   0  0  0  0  0  0  0  0  0  0  0  0
   -3.1441   27.1705    7.2369 H   0  0  0  0  0  0  0  0  0  0  0  0
   -2.3654   28.7057    9.6664 H   0  0  0  0  0  0  0  0  0  0  0  0
   -0.8544   26.8768   10.7259 H   0  0  0  0  0  0  0  0  0  0  0  0
    0.5309   29.0736   11.3545 H   0  0  0  0  0  0  0  0  0  0  0  0
   -0.6653   28.2332   10.2258 H   0  0  0  0  0  0  0  0  0  0  0  0
    0.6844   30.2875   12.2222 H   0  0  0  0  0  0  0  0  0  0  0  0
   -1.9426   32.4635   12.5519 H   0  0  0  0  0  0  0  0  0  0  0  0
    1.9875   32.1893   13.7892 H   0  0  0  0  0  0  0  0  0  0  0  0
   -1.8523   33.4353   13.7694 H   0  0  0  0  0  0  0  0  0  0  0  0
   -0.0829   35.5882   15.3146 H   0  0  0  0  0  0  0  0  0  0  0  0
    0.9997   34.7594   13.6895 H   0  0  0  0  0  0  0  0  0  0  0  0
   -1.4447   34.1401   15.3045 H   0  0  0  0  0  0  0  0  0  0  0  0
    2.0043   33.6517   12.4682 H   0  0  0  0  0  0  0  0  0  0  0  0
    2.1350   32.3165   14.3131 H   0  0  0  0  0  0  0  0  0  0  0  0
  1  2  2  3
  2  3  1  0
  3  4  1  0
  3  5  1  0
  5  6  1  0
  6  7  1  0
  6  8  1  0
  8  9  1  0
  9 10  1  0
 10 11  1  0
 11 12  1  0
 12 13  1  0
 13 14  1  0
 14 15  1  0
 15 16  1  0
 16 17  1  0
 17 18  1  0
 18 19  1  0
 16 20  1  0
 20 21  1  0
 20 22  1  0
 22 23  1  0
 23 24  1  0
 23 25  1  0
 25 26  1  0
 26 27  1  0
 27 28  1  0
 28 29  1  0
 29 30  1  0
 29 31  1  0
 25 32  1  0
 32 33  1  0
 33 34  1  0
 33 35  1  0
 35 36  2  3
 13 37  1  0
 37 38  1  0
 38 39  1  0
 39 40  1  0
 39 41  1  0
 41 42  1  0
 41 43  1  0
 11 44  1  0
 44  5  1  0
 44  6  1  0
 44  8  1  0
 38 12  1  0
 33 25  1  0
 31 26  1  0
  1 45  1  0
  1 46  1  0
  2 47  1  0
  3 48  1  0
  4 49  1  0
  5 50  1  0
  7 51  1  0
  7 52  1  0
  7 53  1  0
  9 54  1  0
  9 55  1  0
 10 56  1  0
 10 57  1  0
 11 58  1  0
 12 59  1  0
 13 60  1  0
 14 61  1  0
 15 62  1  0
 16 63  1  0
 17 64  1  0
 17 65  1  0
 18 66  1  0
 18 67  1  0
 19 68  1  0
 19 69  1  0
 19 70  1  0
 20 71  1  0
 21 72  1  0
 21 73  1  0
 21 74  1  0
 22 75  1  0
 22 76  1  0
 23 77  1  0
 24 78  1  0
 26 79  1  0
 27 80  1  0
 27 81  1  0
 28 82  1  0
 28 83  1  0
 29 84  1  0
 30 85  1  0
 30 86  1  0
 30 87  1  0
 31 88  1  0
 31 89  1  0
 32 90  1  0
 32 91  1  0
 34 92  1  0
 34 93  1  0
 34 94  1  0
 35 95  1  0
 36 96  1  0
 36 97  1  0
 37 98  1  0
 37 99  1  0
 38100  1  0
 39101  1  0
 40102  1  0
 41103  1  0
 42104  1  0
 42105  1  0
 42106  1  0
 43107  1  0
 43108  1  0
M  END
