
     RDKit          2D

 47 49  0  0  0  0  0  0  0  0999 V2000
    0.5822   26.3995    1.9730 C   0  0  0  0  0  0  0  0  0  0  0  0
    1.0170   26.5162    3.4039 C   0  0  0  0  0  0  0  0  0  0  0  0
    1.5060   25.8762    4.6692 C   0  0  0  0  0  0  0  0  0  0  0  0
    1.8678   26.3724    6.0377 C   0  0  0  0  0  0  0  0  0  0  0  0
    1.8907   27.7143    6.7076 C   0  0  0  0  0  0  0  0  0  0  0  0
    2.3571   26.7487    7.7566 C   0  0  0  0  0  0  0  0  0  0  0  0
    2.8234   25.7831    8.8055 C   0  0  0  0  0  0  0  0  0  0  0  0
    1.7768   27.6282    8.8242 C   0  0  0  0  0  0  0  0  0  0  0  0
    1.1123   28.6892    9.6504 C   0  0  0  0  0  0  0  0  0  0  0  0
    1.2261   28.2928   11.0926 N   0  0  0  0  0  0  0  0  0  0  0  0
    1.9609   26.9868   11.1577 C   0  0  0  0  0  0  0  0  0  0  0  0
    1.9192   26.8577   12.6516 C   0  0  0  0  0  0  0  0  0  0  0  0
    2.5838   25.7967   11.8253 O   0  0  0  0  0  0  0  0  0  0  0  0
    2.3013   26.5760    9.7557 C   0  0  0  0  0  0  0  0  0  0  0  0
    1.5611   29.1157    6.2866 C   0  0  0  0  0  0  0  0  0  0  0  0
    1.9960   29.2324    7.7174 C   0  0  0  0  0  0  0  0  0  0  0  0
    1.0722   29.7558    5.0212 C   0  0  0  0  0  0  0  0  0  0  0  0
    0.7103   29.2595    3.6527 P   0  0  0  0  0  0  0  0  0  0  0  0
    0.2674   30.3644    2.7400 O   0  0  0  0  0  0  0  0  0  0  0  0
   -0.1345   30.0553    1.3283 O   0  0  0  0  0  0  0  0  0  0  0  0
    0.6875   27.9177    2.9828 O   0  0  0  0  0  0  0  0  0  0  0  0
    0.1473   26.2830    0.5422 H   0  0  0  0  0  0  0  0  0  0  0  0
    0.8113   24.9181    2.0241 H   0  0  0  0  0  0  0  0  0  0  0  0
    0.3530   27.8811    1.9219 H   0  0  0  0  0  0  0  0  0  0  0  0
    1.1215   25.0544    3.0842 H   0  0  0  0  0  0  0  0  0  0  0  0
    1.6720   24.3914    4.5346 H   0  0  0  0  0  0  0  0  0  0  0  0
    2.0880   25.7251    6.4477 H   0  0  0  0  0  0  0  0  0  0  0  0
    2.2112   28.1828    7.9326 H   0  0  0  0  0  0  0  0  0  0  0  0
    2.6933   26.2222    7.2613 H   0  0  0  0  0  0  0  0  0  0  0  0
    3.2682   24.6870    9.7277 H   0  0  0  0  0  0  0  0  0  0  0  0
    2.6748   24.6527    7.8308 H   0  0  0  0  0  0  0  0  0  0  0  0
    3.0805   26.6464   10.0049 H   0  0  0  0  0  0  0  0  0  0  0  0
    1.1761   28.7886    8.0874 H   0  0  0  0  0  0  0  0  0  0  0  0
    0.6875   29.5912    8.5296 H   0  0  0  0  0  0  0  0  0  0  0  0
    0.3925   29.8855   10.1990 H   0  0  0  0  0  0  0  0  0  0  0  0
    0.6978   29.0666   12.2640 H   0  0  0  0  0  0  0  0  0  0  0  0
    1.1800   28.1152   13.0011 H   0  0  0  0  0  0  0  0  0  0  0  0
    2.1343   26.2919   14.0240 H   0  0  0  0  0  0  0  0  0  0  0  0
    2.8698   25.4604   10.5817 H   0  0  0  0  0  0  0  0  0  0  0  0
    2.8975   25.6633    8.7254 H   0  0  0  0  0  0  0  0  0  0  0  0
    1.5157   30.5337    6.7739 H   0  0  0  0  0  0  0  0  0  0  0  0
    2.3636   29.7042    9.0930 H   0  0  0  0  0  0  0  0  0  0  0  0
    1.7713   30.7145    7.6649 H   0  0  0  0  0  0  0  0  0  0  0  0
    2.2720   27.7755    7.9440 H   0  0  0  0  0  0  0  0  0  0  0  0
    1.1629   30.9956    5.8607 H   0  0  0  0  0  0  0  0  0  0  0  0
    0.6602   30.9811    4.2603 H   0  0  0  0  0  0  0  0  0  0  0  0
   -0.5774   31.1602    0.4156 H   0  0  0  0  0  0  0  0  0  0  0  0
  1  2  1  0
  2  3  1  0
  3  4  2  0
  4  5  1  0
  5  6  1  0
  6  7  1  0
  6  8  1  0
  8  9  1  0
  9 10  1  0
 10 11  1  0
 11 12  1  0
 12 13  1  0
 11 14  1  0
  5 15  1  0
 15 16  1  0
 15 17  1  0
 17 18  1  0
 18 19  1  0
 19 20  1  0
 18 21  1  0
 21  2  1  0
 14  8  1  0
 13 11  1  0
  1 22  1  0
  1 23  1  0
  1 24  1  0
  2 25  1  0
  3 26  1  0
  4 27  1  0
  5 28  1  0
  6 29  1  0
  7 30  1  0
  7 31  1  0
  7 32  1  0
  8 33  1  0
  9 34  1  0
  9 35  1  0
 10 36  1  0
 12 37  1  0
 12 38  1  0
 14 39  1  0
 14 40  1  0
 15 41  1  0
 16 42  1  0
 16 43  1  0
 16 44  1  0
 17 45  1  0
 17 46  1  0
 20 47  1  0
M  END
