
     RDKit          2D

 43 47  0  0  0  0  0  0  0  0999 V2000
   15.6753  -21.9790  -11.3971 C   0  0  0  0  0  0  0  0  0  0  0  0
   16.7834  -22.0850  -10.3917 C   0  0  0  0  0  0  0  0  0  0  0  0
   16.5938  -22.9051   -9.1502 C   0  0  0  0  0  0  0  0  0  0  0  0
   17.0863  -24.2351   -9.6388 C   0  0  0  0  0  0  0  0  0  0  0  0
   16.7800  -25.4803   -8.8606 N   0  0  0  0  0  0  0  0  0  0  0  0
   17.5788  -25.5650  -10.1274 C   0  0  0  0  0  0  0  0  0  0  0  0
   17.8851  -24.3197  -10.9056 C   0  0  0  0  0  0  0  0  0  0  0  0
   17.9180  -22.8703  -11.2901 C   0  0  0  0  0  0  0  0  0  0  0  0
   18.2243  -21.6250  -12.0683 C   0  0  0  0  0  0  0  0  0  0  0  0
   19.0231  -21.7097  -13.3351 C   0  0  0  0  0  0  0  0  0  0  0  0
   18.7168  -22.9549  -12.5569 C   0  0  0  0  0  0  0  0  0  0  0  0
   16.0355  -21.8601   -8.2304 C   0  0  0  0  0  0  0  0  0  0  0  0
   16.2332  -23.2634   -7.7389 C   0  0  0  0  0  0  0  0  0  0  0  0
   15.7450  -23.1165   -6.3282 C   0  0  0  0  0  0  0  0  0  0  0  0
   15.2568  -22.9697   -4.9175 C   0  0  0  0  0  0  0  0  0  0  0  0
   14.7687  -22.8228   -3.5068 C   0  0  0  0  0  0  0  0  0  0  0  0
   14.2805  -22.6760   -2.0960 C   0  0  0  0  0  0  0  0  0  0  0  0
   14.4776  -21.3730   -3.7584 C   0  0  0  0  0  0  0  0  0  0  0  0
   15.6941  -21.2078  -12.6835 H   0  0  0  0  0  0  0  0  0  0  0  0
   14.3226  -22.6228  -11.3208 H   0  0  0  0  0  0  0  0  0  0  0  0
   17.4511  -21.5994  -10.7123 H   0  0  0  0  0  0  0  0  0  0  0  0
   16.1419  -26.1503   -7.6800 H   0  0  0  0  0  0  0  0  0  0  0  0
   18.0713  -26.8949  -10.6160 H   0  0  0  0  0  0  0  0  0  0  0  0
   18.6725  -24.9079  -12.0387 H   0  0  0  0  0  0  0  0  0  0  0  0
   17.5341  -22.3911  -10.7817 H   0  0  0  0  0  0  0  0  0  0  0  0
   17.8133  -20.2233  -11.7272 H   0  0  0  0  0  0  0  0  0  0  0  0
   19.0560  -20.2603  -13.7197 H   0  0  0  0  0  0  0  0  0  0  0  0
   19.8105  -22.2978  -14.4683 H   0  0  0  0  0  0  0  0  0  0  0  0
   19.2093  -24.2849  -13.0456 H   0  0  0  0  0  0  0  0  0  0  0  0
   15.9621  -20.5818   -9.0119 H   0  0  0  0  0  0  0  0  0  0  0  0
   15.4703  -21.0704   -7.0871 H   0  0  0  0  0  0  0  0  0  0  0  0
   16.6004  -24.7177   -7.7374 H   0  0  0  0  0  0  0  0  0  0  0  0
   16.0340  -24.5669   -6.0773 H   0  0  0  0  0  0  0  0  0  0  0  0
   15.3987  -21.6591   -6.4053 H   0  0  0  0  0  0  0  0  0  0  0  0
   15.5446  -24.4204   -4.6669 H   0  0  0  0  0  0  0  0  0  0  0  0
   15.0307  -21.5477   -5.3382 H   0  0  0  0  0  0  0  0  0  0  0  0
   15.0597  -24.2727   -3.2552 H   0  0  0  0  0  0  0  0  0  0  0  0
   13.7923  -22.5291   -0.6853 H   0  0  0  0  0  0  0  0  0  0  0  0
   14.5658  -24.1273   -1.8462 H   0  0  0  0  0  0  0  0  0  0  0  0
   13.9379  -21.2177   -2.1720 H   0  0  0  0  0  0  0  0  0  0  0  0
   14.1866  -19.9233   -4.0101 H   0  0  0  0  0  0  0  0  0  0  0  0
   13.9188  -21.0606   -2.4019 H   0  0  0  0  0  0  0  0  0  0  0  0
   14.9655  -21.3319   -5.1763 H   0  0  0  0  0  0  0  0  0  0  0  0
  1  2  2  3
  2  3  1  0
  3  4  1  0
  4  5  1  0
  5  6  1  0
  6  7  1  0
  7  8  1  0
  8  9  1  0
  9 10  1  0
 10 11  1  0
  3 12  1  0
 12 13  1  0
 13 14  1  0
 14 15  1  0
 15 16  1  0
 16 17  1  0
 16 18  1  0
 13  3  1  0
  6  4  1  0
 11  8  1  0
  7  4  1  0
 11  9  1  0
  1 19  1  0
  1 20  1  0
  2 21  1  0
  5 22  1  0
  6 23  1  0
  7 24  1  0
  8 25  1  0
  9 26  1  0
 10 27  1  0
 10 28  1  0
 11 29  1  0
 12 30  1  0
 12 31  1  0
 13 32  1  0
 14 33  1  0
 14 34  1  0
 15 35  1  0
 15 36  1  0
 16 37  1  0
 17 38  1  0
 17 39  1  0
 17 40  1  0
 18 41  1  0
 18 42  1  0
 18 43  1  0
M  END
