
     RDKit          2D

 61 61  0  0  0  0  0  0  0  0999 V2000
   17.2096  -17.1861  -20.3433 C   0  0  0  0  0  0  0  0  0  0  0  0
   17.6627  -17.4133  -18.9315 C   0  0  0  0  0  0  0  0  0  0  0  0
   18.1158  -17.6406  -17.5198 C   0  0  0  0  0  0  0  0  0  0  0  0
   18.5689  -17.8678  -16.1081 C   0  0  0  0  0  0  0  0  0  0  0  0
   19.0221  -18.0951  -14.6963 C   0  0  0  0  0  0  0  0  0  0  0  0
   19.4753  -18.3223  -13.2846 C   0  0  0  0  0  0  0  0  0  0  0  0
   19.9284  -18.5496  -11.8728 C   0  0  0  0  0  0  0  0  0  0  0  0
   21.3748  -18.8672  -12.1115 C   0  0  0  0  0  0  0  0  0  0  0  0
   20.8292  -18.8597  -10.7142 C   0  0  0  0  0  0  0  0  0  0  0  0
   19.8531  -18.7287   -9.5830 C   0  0  0  0  0  0  0  0  0  0  0  0
   18.8769  -18.5977   -8.4516 C   0  0  0  0  0  0  0  0  0  0  0  0
   17.9006  -18.4667   -7.3203 N   0  0  0  0  0  0  0  0  0  0  0  0
   16.4713  -18.1085   -7.6007 C   0  0  0  0  0  0  0  0  0  0  0  0
   15.0419  -17.7502   -7.8811 C   0  0  0  0  0  0  0  0  0  0  0  0
   18.3538  -18.6940   -5.9085 C   0  0  0  0  0  0  0  0  0  0  0  0
   19.5735  -19.4055   -6.4146 C   0  0  0  0  0  0  0  0  0  0  0  0
   19.8094  -19.5326   -7.8904 S   0  0  0  0  0  0  0  0  0  0  0  0
   17.1340  -17.9825   -5.4025 C   0  0  0  0  0  0  0  0  0  0  0  0
   15.9144  -17.2711   -4.8965 N   0  0  0  0  0  0  0  0  0  0  0  0
   15.6784  -17.1439   -3.4206 C   0  0  0  0  0  0  0  0  0  0  0  0
   14.9238  -18.4404   -3.4297 C   0  0  0  0  0  0  0  0  0  0  0  0
   16.4329  -15.8476   -3.4116 C   0  0  0  0  0  0  0  0  0  0  0  0
   17.1874  -14.5512   -3.4025 O   0  0  0  0  0  0  0  0  0  0  0  0
   16.7564  -16.9588  -21.7551 H   0  0  0  0  0  0  0  0  0  0  0  0
   18.6085  -16.8089  -20.7316 H   0  0  0  0  0  0  0  0  0  0  0  0
   15.8106  -17.5633  -19.9550 H   0  0  0  0  0  0  0  0  0  0  0  0
   19.0791  -17.5448  -19.4074 H   0  0  0  0  0  0  0  0  0  0  0  0
   16.2463  -17.2818  -18.4558 H   0  0  0  0  0  0  0  0  0  0  0  0
   16.7143  -17.4175  -17.0340 H   0  0  0  0  0  0  0  0  0  0  0  0
   19.5173  -17.8636  -18.0055 H   0  0  0  0  0  0  0  0  0  0  0  0
   19.9843  -17.5856  -16.5169 H   0  0  0  0  0  0  0  0  0  0  0  0
   17.1537  -18.1500  -15.6991 H   0  0  0  0  0  0  0  0  0  0  0  0
   17.6379  -17.7931  -14.2035 H   0  0  0  0  0  0  0  0  0  0  0  0
   20.4063  -18.3970  -15.1892 H   0  0  0  0  0  0  0  0  0  0  0  0
   18.0860  -18.0416  -12.7935 H   0  0  0  0  0  0  0  0  0  0  0  0
   20.6666  -18.5482  -13.8781 H   0  0  0  0  0  0  0  0  0  0  0  0
   18.7015  -18.3064  -11.3648 H   0  0  0  0  0  0  0  0  0  0  0  0
   22.8042  -19.2255  -11.8311 H   0  0  0  0  0  0  0  0  0  0  0  0
   21.5790  -18.8004  -13.4443 H   0  0  0  0  0  0  0  0  0  0  0  0
   22.0690  -19.2154   -9.9485 H   0  0  0  0  0  0  0  0  0  0  0  0
   20.9387  -19.0717   -8.6064 H   0  0  0  0  0  0  0  0  0  0  0  0
   18.7761  -18.4080  -10.3311 H   0  0  0  0  0  0  0  0  0  0  0  0
   19.5132  -18.7853   -8.0096 H   0  0  0  0  0  0  0  0  0  0  0  0
   17.7903  -18.2582   -9.4285 H   0  0  0  0  0  0  0  0  0  0  0  0
   16.7062  -18.3190   -9.0672 H   0  0  0  0  0  0  0  0  0  0  0  0
   16.0639  -17.8559   -6.1794 H   0  0  0  0  0  0  0  0  0  0  0  0
   13.6126  -17.3919   -8.1616 H   0  0  0  0  0  0  0  0  0  0  0  0
   15.3448  -17.6909   -9.3491 H   0  0  0  0  0  0  0  0  0  0  0  0
   14.5672  -17.7654   -6.4584 H   0  0  0  0  0  0  0  0  0  0  0  0
   18.8069  -18.9212   -4.4968 H   0  0  0  0  0  0  0  0  0  0  0  0
   20.1469  -19.7451   -5.9771 H   0  0  0  0  0  0  0  0  0  0  0  0
   17.7068  -18.3390   -4.0628 H   0  0  0  0  0  0  0  0  0  0  0  0
   16.2980  -17.4737   -6.5392 H   0  0  0  0  0  0  0  0  0  0  0  0
   14.9305  -16.6866   -5.8663 H   0  0  0  0  0  0  0  0  0  0  0  0
   15.4423  -17.0169   -1.9447 H   0  0  0  0  0  0  0  0  0  0  0  0
   14.1693  -19.7368   -3.4388 H   0  0  0  0  0  0  0  0  0  0  0  0
   14.6711  -18.3035   -1.9575 H   0  0  0  0  0  0  0  0  0  0  0  0
   14.8893  -19.0328   -4.8073 H   0  0  0  0  0  0  0  0  0  0  0  0
   16.1940  -15.7189   -1.9363 H   0  0  0  0  0  0  0  0  0  0  0  0
   16.7620  -15.8173   -4.8747 H   0  0  0  0  0  0  0  0  0  0  0  0
   17.3597  -13.7927   -2.1200 H   0  0  0  0  0  0  0  0  0  0  0  0
  1  2  1  0
  2  3  1  0
  3  4  1  0
  4  5  1  0
  5  6  1  0
  6  7  1  0
  7  8  1  0
  8  9  1  0
  9 10  1  0
 10 11  1  0
 11 12  1  0
 12 13  1  0
 13 14  1  0
 12 15  1  0
 15 16  1  0
 16 17  2  0
 15 18  1  0
 18 19  1  0
 19 20  1  0
 20 21  1  0
 20 22  1  0
 22 23  1  0
  9  7  1  0
  1 24  1  0
  1 25  1  0
  1 26  1  0
  2 27  1  0
  2 28  1  0
  3 29  1  0
  3 30  1  0
  4 31  1  0
  4 32  1  0
  5 33  1  0
  5 34  1  0
  6 35  1  0
  6 36  1  0
  7 37  1  0
  8 38  1  0
  8 39  1  0
  9 40  1  0
 10 41  1  0
 10 42  1  0
 11 43  1  0
 11 44  1  0
 13 45  1  0
 13 46  1  0
 14 47  1  0
 14 48  1  0
 14 49  1  0
 15 50  1  0
 16 51  1  0
 18 52  1  0
 18 53  1  0
 19 54  1  0
 20 55  1  0
 21 56  1  0
 21 57  1  0
 21 58  1  0
 22 59  1  0
 22 60  1  0
 23 61  1  0
M  END
