
     RDKit          2D

107114  0  0  0  0  0  0  0  0999 V2000
   23.7096  -21.9098   -3.7571 C   0  0  0  0  0  0  0  0  0  0  0  0
   22.3352  -22.2642   -3.2718 C   0  0  0  0  0  0  0  0  0  0  0  0
   21.3728  -21.6672   -4.2555 C   0  0  0  0  0  0  0  0  0  0  0  0
   19.9416  -21.4595   -4.6534 C   0  0  0  0  0  0  0  0  0  0  0  0
   18.4958  -21.7069   -4.3393 C   0  0  0  0  0  0  0  0  0  0  0  0
   19.0637  -20.9466   -5.5010 C   0  0  0  0  0  0  0  0  0  0  0  0
   19.9076  -20.2599   -6.5335 C   0  0  0  0  0  0  0  0  0  0  0  0
   17.9193  -20.4514   -6.3346 C   0  0  0  0  0  0  0  0  0  0  0  0
   16.6442  -20.9055   -5.6882 C   0  0  0  0  0  0  0  0  0  0  0  0
   17.0005  -21.6815   -4.4550 C   0  0  0  0  0  0  0  0  0  0  0  0
   16.5985  -20.0996   -6.9525 C   0  0  0  0  0  0  0  0  0  0  0  0
   15.8095  -19.4312   -8.0391 O   0  0  0  0  0  0  0  0  0  0  0  0
   16.5193  -18.7037   -9.1423 C   0  0  0  0  0  0  0  0  0  0  0  0
   15.2695  -18.7408   -9.9709 C   0  0  0  0  0  0  0  0  0  0  0  0
   17.2291  -17.9763  -10.2455 C   0  0  0  0  0  0  0  0  0  0  0  0
   17.4947  -22.3310   -3.4129 C   0  0  0  0  0  0  0  0  0  0  0  0
   16.4133  -21.7987   -4.3012 S   0  0  0  0  0  0  0  0  0  0  0  0
   15.5748  -21.3854   -4.9910 C   0  0  0  0  0  0  0  0  0  0  0  0
   14.4948  -20.8523   -5.8805 N   0  0  0  0  0  0  0  0  0  0  0  0
   13.4991  -20.2716   -6.8404 C   0  0  0  0  0  0  0  0  0  0  0  0
   13.0260  -21.0486   -5.6477 C   0  0  0  0  0  0  0  0  0  0  0  0
   11.8656  -21.5866   -4.8640 N   0  0  0  0  0  0  0  0  0  0  0  0
   11.2796  -22.3432   -3.7090 C   0  0  0  0  0  0  0  0  0  0  0  0
   10.0465  -22.8310   -3.0078 C   0  0  0  0  0  0  0  0  0  0  0  0
    9.1798  -23.5097   -1.9889 C   0  0  0  0  0  0  0  0  0  0  0  0
    8.3130  -24.1884   -0.9700 C   0  0  0  0  0  0  0  0  0  0  0  0
   11.4020  -23.1450   -2.4473 C   0  0  0  0  0  0  0  0  0  0  0  0
   12.2049  -23.8084   -1.3677 C   0  0  0  0  0  0  0  0  0  0  0  0
   13.5044  -24.1812   -0.7179 C   0  0  0  0  0  0  0  0  0  0  0  0
   15.0027  -24.1783   -0.6465 C   0  0  0  0  0  0  0  0  0  0  0  0
   13.7032  -23.8054   -1.2964 C   0  0  0  0  0  0  0  0  0  0  0  0
   16.3566  -23.8002   -1.1699 C   0  0  0  0  0  0  0  0  0  0  0  0
   17.2560  -23.1335   -2.1682 C   0  0  0  0  0  0  0  0  0  0  0  0
   17.8554  -23.8597   -1.0007 C   0  0  0  0  0  0  0  0  0  0  0  0
   19.1028  -24.2790   -0.2807 C   0  0  0  0  0  0  0  0  0  0  0  0
   20.6020  -24.2583   -0.2371 C   0  0  0  0  0  0  0  0  0  0  0  0
   20.0874  -25.0285    0.9428 C   0  0  0  0  0  0  0  0  0  0  0  0
   19.5728  -25.7986    2.1226 C   0  0  0  0  0  0  0  0  0  0  0  0
   18.0958  -25.9718    2.3190 O   0  0  0  0  0  0  0  0  0  0  0  0
   20.5352  -26.3955    3.1062 C   0  0  0  0  0  0  0  0  0  0  0  0
   21.4977  -26.9925    4.0898 C   0  0  0  0  0  0  0  0  0  0  0  0
   22.4601  -27.5893    5.0733 C   0  0  0  0  0  0  0  0  0  0  0  0
   23.4225  -28.1863    6.0569 C   0  0  0  0  0  0  0  0  0  0  0  0
   21.8771  -23.8042   -0.8835 C   0  0  0  0  0  0  0  0  0  0  0  0
   22.5232  -23.0608   -2.0149 C   0  0  0  0  0  0  0  0  0  0  0  0
   23.8777  -21.1036   -5.0109 H   0  0  0  0  0  0  0  0  0  0  0  0
   24.9160  -22.3614   -2.9886 H   0  0  0  0  0  0  0  0  0  0  0  0
   22.2050  -20.9764   -5.2949 H   0  0  0  0  0  0  0  0  0  0  0  0
   20.3292  -20.6707   -5.8689 H   0  0  0  0  0  0  0  0  0  0  0  0
   20.5170  -21.1119   -5.1684 H   0  0  0  0  0  0  0  0  0  0  0  0
   18.7804  -19.7563   -7.3855 H   0  0  0  0  0  0  0  0  0  0  0  0
   21.1469  -20.6830   -5.8019 H   0  0  0  0  0  0  0  0  0  0  0  0
   20.7516  -19.5732   -7.5660 H   0  0  0  0  0  0  0  0  0  0  0  0
   18.7633  -19.7646   -7.3672 H   0  0  0  0  0  0  0  0  0  0  0  0
   15.2375  -20.6583   -6.1466 H   0  0  0  0  0  0  0  0  0  0  0  0
   16.0317  -22.3199   -3.5043 H   0  0  0  0  0  0  0  0  0  0  0  0
   17.7691  -18.6666   -8.3137 H   0  0  0  0  0  0  0  0  0  0  0  0
   14.2976  -18.8308   -8.8319 H   0  0  0  0  0  0  0  0  0  0  0  0
   15.7683  -18.6663  -11.3836 H   0  0  0  0  0  0  0  0  0  0  0  0
   13.9284  -18.7881  -10.6410 H   0  0  0  0  0  0  0  0  0  0  0  0
   18.6265  -18.2353   -9.7659 H   0  0  0  0  0  0  0  0  0  0  0  0
   15.9083  -17.6259  -10.8642 H   0  0  0  0  0  0  0  0  0  0  0  0
   17.9388  -17.2488  -11.3486 H   0  0  0  0  0  0  0  0  0  0  0  0
   18.4522  -21.6876   -4.3717 H   0  0  0  0  0  0  0  0  0  0  0  0
   16.8283  -20.3737   -6.5116 H   0  0  0  0  0  0  0  0  0  0  0  0
   15.8131  -20.2410   -6.7709 H   0  0  0  0  0  0  0  0  0  0  0  0
   14.4304  -19.6174   -7.8176 H   0  0  0  0  0  0  0  0  0  0  0  0
   12.1800  -19.9181   -7.4609 H   0  0  0  0  0  0  0  0  0  0  0  0
   11.7909  -20.6192   -6.3828 H   0  0  0  0  0  0  0  0  0  0  0  0
   10.6658  -21.1300   -5.6400 H   0  0  0  0  0  0  0  0  0  0  0  0
   10.1170  -21.8601   -4.5245 H   0  0  0  0  0  0  0  0  0  0  0  0
    8.9922  -22.2812   -3.9221 H   0  0  0  0  0  0  0  0  0  0  0  0
    7.9564  -23.0746   -2.7399 H   0  0  0  0  0  0  0  0  0  0  0  0
   10.2884  -24.0243   -1.1193 H   0  0  0  0  0  0  0  0  0  0  0  0
    7.0888  -23.7046   -1.6894 H   0  0  0  0  0  0  0  0  0  0  0  0
    9.5372  -24.6722   -0.2508 H   0  0  0  0  0  0  0  0  0  0  0  0
    7.4462  -24.8671    0.0487 H   0  0  0  0  0  0  0  0  0  0  0  0
   10.5534  -23.8301   -1.4174 H   0  0  0  0  0  0  0  0  0  0  0  0
   11.1675  -24.4152   -0.4702 H   0  0  0  0  0  0  0  0  0  0  0  0
   12.3441  -24.7193    0.0658 H   0  0  0  0  0  0  0  0  0  0  0  0
   13.9810  -24.9358    0.4878 H   0  0  0  0  0  0  0  0  0  0  0  0
   15.3044  -24.9622    0.5963 H   0  0  0  0  0  0  0  0  0  0  0  0
   14.8636  -23.2673   -2.0801 H   0  0  0  0  0  0  0  0  0  0  0  0
   13.2267  -23.0509   -2.5020 H   0  0  0  0  0  0  0  0  0  0  0  0
   16.4790  -24.6020    0.0919 H   0  0  0  0  0  0  0  0  0  0  0  0
   17.5527  -24.2595   -0.3899 H   0  0  0  0  0  0  0  0  0  0  0  0
   16.4034  -23.8173   -1.1408 H   0  0  0  0  0  0  0  0  0  0  0  0
   17.3030  -24.6229    0.1665 H   0  0  0  0  0  0  0  0  0  0  0  0
   16.5018  -24.2381   -0.4767 H   0  0  0  0  0  0  0  0  0  0  0  0
   19.2102  -25.0818    0.9818 H   0  0  0  0  0  0  0  0  0  0  0  0
   17.9085  -24.7946    0.4661 H   0  0  0  0  0  0  0  0  0  0  0  0
   21.6405  -24.8168    0.6901 H   0  0  0  0  0  0  0  0  0  0  0  0
   18.6262  -24.8503    0.6542 H   0  0  0  0  0  0  0  0  0  0  0  0
   21.4963  -25.3025    1.3784 H   0  0  0  0  0  0  0  0  0  0  0  0
   19.3858  -26.9502    3.8943 H   0  0  0  0  0  0  0  0  0  0  0  0
   21.6847  -25.8408    2.3182 H   0  0  0  0  0  0  0  0  0  0  0  0
   20.3484  -27.5502    4.8759 H   0  0  0  0  0  0  0  0  0  0  0  0
   22.6470  -26.4346    3.3036 H   0  0  0  0  0  0  0  0  0  0  0  0
   21.3114  -28.1604    5.8509 H   0  0  0  0  0  0  0  0  0  0  0  0
   23.6087  -27.0184    4.2959 H   0  0  0  0  0  0  0  0  0  0  0  0
   22.2733  -28.7458    6.8419 H   0  0  0  0  0  0  0  0  0  0  0  0
   24.5718  -27.6268    5.2720 H   0  0  0  0  0  0  0  0  0  0  0  0
   24.3849  -28.7832    7.0405 H   0  0  0  0  0  0  0  0  0  0  0  0
   23.3355  -23.9582   -0.5683 H   0  0  0  0  0  0  0  0  0  0  0  0
   22.3815  -24.5528    0.3144 H   0  0  0  0  0  0  0  0  0  0  0  0
   23.8675  -22.6722   -2.5551 H   0  0  0  0  0  0  0  0  0  0  0  0
   23.7110  -23.5262   -1.2258 H   0  0  0  0  0  0  0  0  0  0  0  0
  1  2  2  0
  2  3  1  0
  3  4  2  0
  4  5  1  0
  5  6  1  0
  6  7  1  0
  6  8  1  0
  8  9  1  0
  9 10  1  0
 10 11  1  0
 11 12  1  0
 12 13  1  0
 13 14  1  0
 13 15  1  0
  5 16  1  0
 16 17  1  0
 17 18  1  0
 18 19  1  0
 19 20  1  0
 20 21  1  0
 21 22  1  0
 22 23  1  0
 23 24  1  0
 24 25  1  0
 25 26  1  0
 24 27  1  0
 27 28  1  0
 28 29  1  0
 29 30  1  0
 30 31  1  0
 30 32  1  0
 32 33  1  0
 33 34  1  0
 34 35  1  0
 35 36  1  0
 36 37  1  0
 37 38  1  0
 38 39  2  0
 38 40  1  0
 40 41  1  0
 41 42  1  0
 42 43  1  0
 36 44  1  0
 44 45  1  0
 45  2  1  0
 10  5  1  0
 33 16  1  0
 11  8  1  0
 21 19  1  0
 27 23  1  0
 31 28  1  0
 11  9  1  0
  1 46  1  0
  1 47  1  0
  3 48  1  0
  4 49  1  0
  6 50  1  0
  7 51  1  0
  7 52  1  0
  7 53  1  0
  8 54  1  0
  9 55  1  0
 10 56  1  0
 13 57  1  0
 14 58  1  0
 14 59  1  0
 14 60  1  0
 15 61  1  0
 15 62  1  0
 15 63  1  0
 16 64  1  0
 18 65  1  0
 18 66  1  0
 20 67  1  0
 20 68  1  0
 21 69  1  0
 22 70  1  0
 23 71  1  0
 24 72  1  0
 25 73  1  0
 25 74  1  0
 26 75  1  0
 26 76  1  0
 26 77  1  0
 27 78  1  0
 28 79  1  0
 29 80  1  0
 29 81  1  0
 30 82  1  0
 31 83  1  0
 31 84  1  0
 32 85  1  0
 32 86  1  0
 33 87  1  0
 34 88  1  0
 34 89  1  0
 35 90  1  0
 35 91  1  0
 36 92  1  0
 37 93  1  0
 37 94  1  0
 40 95  1  0
 40 96  1  0
 41 97  1  0
 41 98  1  0
 42 99  1  0
 42100  1  0
 43101  1  0
 43102  1  0
 43103  1  0
 44104  1  0
 44105  1  0
 45106  1  0
 45107  1  0
M  END
