
     RDKit          2D

 31 31  0  0  0  0  0  0  0  0999 V2000
   -1.2767   24.2398    2.2925 C   0  0  0  0  0  0  0  0  0  0  0  0
   -0.9800   23.7809    3.6894 C   0  0  0  0  0  0  0  0  0  0  0  0
    0.5149   23.9052    3.6925 C   0  0  0  0  0  0  0  0  0  0  0  0
    2.0097   24.0295    3.6955 C   0  0  0  0  0  0  0  0  0  0  0  0
    3.5046   24.1538    3.6986 C   0  0  0  0  0  0  0  0  0  0  0  0
    4.9994   24.2781    3.7017 C   0  0  0  0  0  0  0  0  0  0  0  0
    5.7794   23.9178    4.9312 O   0  0  0  0  0  0  0  0  0  0  0  0
    5.7142   24.7628    2.4752 C   0  0  0  0  0  0  0  0  0  0  0  0
    6.4290   25.2474    1.2488 N   0  0  0  0  0  2  0  0  0  0  0  0
    7.0312   24.5702    3.1668 O   0  0  0  0  0  1  0  0  0  0  0  0
   -2.3718   23.4973    4.1715 N   0  0  0  0  0  0  0  0  0  0  0  0
   -1.2025   23.2789    5.0853 C   0  0  0  0  0  0  0  0  0  0  0  0
    0.2151   23.2288    5.5731 C   0  0  0  0  0  0  0  0  0  0  0  0
    1.6327   23.1788    6.0610 N   0  0  0  0  0  0  0  0  0  0  0  0
    1.9293   22.7199    7.4579 I   0  0  0  0  0  0  0  0  0  0  0  0
   -1.5733   24.6987    0.8956 H   0  0  0  0  0  0  0  0  0  0  0  0
   -0.1276   24.4510    1.9588 H   0  0  0  0  0  0  0  0  0  0  0  0
   -2.7423   24.0335    2.5360 H   0  0  0  0  0  0  0  0  0  0  0  0
    0.7265   23.6696    4.4240 H   0  0  0  0  0  0  0  0  0  0  0  0
    0.6322   24.3098    2.5529 H   0  0  0  0  0  0  0  0  0  0  0  0
    1.9722   24.5167    2.2774 H   0  0  0  0  0  0  0  0  0  0  0  0
    2.2292   23.5612    5.1036 H   0  0  0  0  0  0  0  0  0  0  0  0
    3.4370   24.9961    2.4593 H   0  0  0  0  0  0  0  0  0  0  0  0
    3.7538   23.3330    4.9292 H   0  0  0  0  0  0  0  0  0  0  0  0
    4.3971   24.9553    1.7837 H   0  0  0  0  0  0  0  0  0  0  0  0
    7.9238   25.3718    1.2518 H   0  0  0  0  0  0  0  0  0  0  0  0
   -3.8504   23.4596    3.9223 H   0  0  0  0  0  0  0  0  0  0  0  0
   -1.9172   22.7943    6.3117 H   0  0  0  0  0  0  0  0  0  0  0  0
   -0.2604   22.7234    6.9030 H   0  0  0  0  0  0  0  0  0  0  0  0
    0.6426   23.4830    4.9502 H   0  0  0  0  0  0  0  0  0  0  0  0
    2.9598   23.5043    5.4423 H   0  0  0  0  0  0  0  0  0  0  0  0
  1  2  1  0
  2  3  1  0
  3  4  1  0
  4  5  1  0
  5  6  1  0
  6  7  2  0
  6  8  1  0
  8  9  1  0
  8 10  1  0
  2 11  1  0
 11 12  1  0
 12 13  1  0
 13 14  1  0
 14 15  1  0
 12  2  1  0
  1 16  1  0
  1 17  1  0
  1 18  1  0
  3 19  1  0
  3 20  1  0
  4 21  1  0
  4 22  1  0
  5 23  1  0
  5 24  1  0
  8 25  1  0
  9 26  1  0
 11 27  1  0
 12 28  1  0
 13 29  1  0
 13 30  1  0
 14 31  1  0
M  RAD  2   9   2  10   2
M  END
