
     RDKit          2D

102112  0  0  0  0  0  0  0  0999 V2000
   -5.0875   31.5545    2.6528 C   0  0  0  0  0  0  0  0  0  0  0  0
   -3.2745   30.4963    3.3110 C   0  0  0  0  0  0  0  0  0  0  0  0
   -3.6182   29.6280    3.9029 C   0  0  0  0  0  0  0  0  0  0  0  0
   -3.9395   28.4445    4.7056 C   0  0  0  0  0  0  0  0  0  0  0  0
   -5.2467   27.8512    5.1404 C   0  0  0  0  0  0  0  0  0  0  0  0
   -4.9519   26.6258    5.9537 C   0  0  0  0  0  0  0  0  0  0  0  0
   -5.2382   28.5595    4.6653 C   0  0  0  0  0  0  0  0  0  0  0  0
   -5.5958   29.7741    3.8610 C   0  0  0  0  0  0  0  0  0  0  0  0
   -5.1771   30.9650    3.0506 C   0  0  0  0  0  0  0  0  0  0  0  0
   -5.7821   32.1129    2.2980 C   0  0  0  0  0  0  0  0  0  0  0  0
   -6.0540   33.4101    3.0005 O   0  0  0  0  0  0  0  0  0  0  0  0
   -4.0947   31.8130    2.4513 C   0  0  0  0  0  0  0  0  0  0  0  0
   -2.6383   32.0910    2.2238 O   0  0  0  0  0  0  0  0  0  0  0  0
   -1.1984   31.7243    2.4288 C   0  0  0  0  0  0  0  0  0  0  0  0
   -2.4174   31.0648    2.9055 C   0  0  0  0  0  0  0  0  0  0  0  0
    0.1460   31.1547    2.7727 C   0  0  0  0  0  0  0  0  0  0  0  0
    0.3342   32.3883    1.9402 C   0  0  0  0  0  0  0  0  0  0  0  0
    0.5224   33.6218    1.1078 C   0  0  0  0  0  0  0  0  0  0  0  0
    1.8221   32.2160    2.0213 O   0  0  0  0  0  0  0  0  0  0  0  0
    2.7290   33.1981    1.3409 O   0  0  0  0  0  0  0  0  0  0  0  0
    0.9178   30.0764    3.4738 C   0  0  0  0  0  0  0  0  0  0  0  0
    0.8719   28.8317    4.3097 C   0  0  0  0  0  0  0  0  0  0  0  0
    2.1080   28.1102    4.7585 C   0  0  0  0  0  0  0  0  0  0  0  0
    2.7540   26.9774    5.4998 C   0  0  0  0  0  0  0  0  0  0  0  0
    1.2590   27.0944    5.4637 C   0  0  0  0  0  0  0  0  0  0  0  0
    0.0229   27.8159    5.0149 C   0  0  0  0  0  0  0  0  0  0  0  0
   -1.3597   27.3514    5.3655 C   0  0  0  0  0  0  0  0  0  0  0  0
   -1.1918   26.1112    6.1923 C   0  0  0  0  0  0  0  0  0  0  0  0
    0.3049   26.0139    6.2152 C   0  0  0  0  0  0  0  0  0  0  0  0
    0.9723   24.8895    6.9502 N   0  0  0  0  0  0  0  0  0  0  0  0
    0.1431   23.8623    7.6624 C   0  0  0  0  0  0  0  0  0  0  0  0
    1.2295   22.9894    8.2170 C   0  0  0  0  0  0  0  0  0  0  0  0
    2.3159   22.1164    8.7716 C   0  0  0  0  0  0  0  0  0  0  0  0
    3.3500   23.0184    8.1656 C   0  0  0  0  0  0  0  0  0  0  0  0
    4.4364   22.1454    8.7202 C   0  0  0  0  0  0  0  0  0  0  0  0
    3.4023   21.2434    9.3261 C   0  0  0  0  0  0  0  0  0  0  0  0
    2.3682   20.3414    9.9320 C   0  0  0  0  0  0  0  0  0  0  0  0
    1.3342   19.4394   10.5379 C   0  0  0  0  0  0  0  0  0  0  0  0
    0.3001   18.5374   11.1438 C   0  0  0  0  0  0  0  0  0  0  0  0
   -0.3013   17.4224   11.9468 C   0  0  0  0  0  0  0  0  0  0  0  0
    1.1866   17.6105   11.9218 C   0  0  0  0  0  0  0  0  0  0  0  0
    1.6071   16.4822   12.8163 C   0  0  0  0  0  0  0  0  0  0  0  0
   -0.5244   24.9867    6.9274 C   0  0  0  0  0  0  0  0  0  0  0  0
   -2.8367   27.5857    5.2502 C   0  0  0  0  0  0  0  0  0  0  0  0
   -3.4624   26.4617    6.0216 C   0  0  0  0  0  0  0  0  0  0  0  0
   -4.9703   32.7950    1.8177 H   0  0  0  0  0  0  0  0  0  0  0  0
   -6.5569   31.3250    2.8483 H   0  0  0  0  0  0  0  0  0  0  0  0
   -4.4560   29.5399    3.9858 H   0  0  0  0  0  0  0  0  0  0  0  0
   -4.5864   30.4782    3.3603 H   0  0  0  0  0  0  0  0  0  0  0  0
   -3.9734   27.1994    5.5414 H   0  0  0  0  0  0  0  0  0  0  0  0
   -6.0041   28.9364    4.4343 H   0  0  0  0  0  0  0  0  0  0  0  0
   -6.6782   27.4987    5.4173 H   0  0  0  0  0  0  0  0  0  0  0  0
   -5.9683   25.7229    6.5879 H   0  0  0  0  0  0  0  0  0  0  0  0
   -4.6433   29.0967    4.2882 H   0  0  0  0  0  0  0  0  0  0  0  0
   -3.9293   27.9344    5.0473 H   0  0  0  0  0  0  0  0  0  0  0  0
   -6.9840   30.2631    3.5724 H   0  0  0  0  0  0  0  0  0  0  0  0
   -6.8419   29.0975    4.3499 H   0  0  0  0  0  0  0  0  0  0  0  0
   -6.6735   30.9022    3.1351 H   0  0  0  0  0  0  0  0  0  0  0  0
   -6.1744   32.1368    0.8505 H   0  0  0  0  0  0  0  0  0  0  0  0
   -3.9325   33.0494    1.6177 H   0  0  0  0  0  0  0  0  0  0  0  0
   -5.1133   32.7406    1.8582 H   0  0  0  0  0  0  0  0  0  0  0  0
   -1.1216   32.9676    1.5930 H   0  0  0  0  0  0  0  0  0  0  0  0
   -4.1167   32.0029    2.3246 H   0  0  0  0  0  0  0  0  0  0  0  0
   -2.3598   32.8157    1.7299 H   0  0  0  0  0  0  0  0  0  0  0  0
    1.5649   31.5394    2.4746 H   0  0  0  0  0  0  0  0  0  0  0  0
   -1.1196   32.7097    1.7583 H   0  0  0  0  0  0  0  0  0  0  0  0
    0.7105   34.8554    0.2754 H   0  0  0  0  0  0  0  0  0  0  0  0
   -0.8758   34.0834    0.8216 H   0  0  0  0  0  0  0  0  0  0  0  0
    2.0104   33.4538    1.1951 H   0  0  0  0  0  0  0  0  0  0  0  0
    2.1481   34.3525    0.5795 H   0  0  0  0  0  0  0  0  0  0  0  0
    2.0134   30.9127    2.8821 H   0  0  0  0  0  0  0  0  0  0  0  0
    2.3191   29.6147    3.7437 H   0  0  0  0  0  0  0  0  0  0  0  0
   -0.4217   29.4790    3.9124 H   0  0  0  0  0  0  0  0  0  0  0  0
    3.2479   28.9047    4.1935 H   0  0  0  0  0  0  0  0  0  0  0  0
    4.1989   27.2918    5.2480 H   0  0  0  0  0  0  0  0  0  0  0  0
    2.8982   25.7354    6.3285 H   0  0  0  0  0  0  0  0  0  0  0  0
   -0.1298   26.5785    5.8489 H   0  0  0  0  0  0  0  0  0  0  0  0
   -2.5677   25.6338    6.5514 H   0  0  0  0  0  0  0  0  0  0  0  0
    1.4118   26.8399    5.6300 H   0  0  0  0  0  0  0  0  0  0  0  0
   -1.0635   23.1383    8.1820 H   0  0  0  0  0  0  0  0  0  0  0  0
    2.1233   23.9888    7.5445 H   0  0  0  0  0  0  0  0  0  0  0  0
    0.1954   22.0896    8.8264 H   0  0  0  0  0  0  0  0  0  0  0  0
    1.1572   21.3275    9.3053 H   0  0  0  0  0  0  0  0  0  0  0  0
    4.3840   23.9204    7.5598 H   0  0  0  0  0  0  0  0  0  0  0  0
    2.3977   23.9948    7.5414 H   0  0  0  0  0  0  0  0  0  0  0  0
    5.5229   21.2724    9.2748 H   0  0  0  0  0  0  0  0  0  0  0  0
    5.4704   23.0474    8.1143 H   0  0  0  0  0  0  0  0  0  0  0  0
    4.4888   20.3704    9.8807 H   0  0  0  0  0  0  0  0  0  0  0  0
    3.4510   19.5568   10.6119 H   0  0  0  0  0  0  0  0  0  0  0  0
    1.1676   21.0102    9.3311 H   0  0  0  0  0  0  0  0  0  0  0  0
    2.5350   18.7704   11.1386 H   0  0  0  0  0  0  0  0  0  0  0  0
    0.2515   20.2242    9.8584 H   0  0  0  0  0  0  0  0  0  0  0  0
   -0.9454   19.1510   10.5763 H   0  0  0  0  0  0  0  0  0  0  0  0
   -1.7558   17.6486   11.6582 H   0  0  0  0  0  0  0  0  0  0  0  0
   -0.5790   16.2399   12.8270 H   0  0  0  0  0  0  0  0  0  0  0  0
    2.5994   18.0591   11.6921 H   0  0  0  0  0  0  0  0  0  0  0  0
    2.0275   15.3540   13.7108 H   0  0  0  0  0  0  0  0  0  0  0  0
    2.9272   17.1563   13.0460 H   0  0  0  0  0  0  0  0  0  0  0  0
    0.3479   15.6758   12.6973 H   0  0  0  0  0  0  0  0  0  0  0  0
   -1.9830   26.5502    5.9203 H   0  0  0  0  0  0  0  0  0  0  0  0
   -3.7912   25.2504    6.8431 H   0  0  0  0  0  0  0  0  0  0  0  0
   -2.2001   25.7727    6.4478 H   0  0  0  0  0  0  0  0  0  0  0  0
  1  2  2  3
  2  3  1  0
  3  4  1  0
  4  5  1  0
  5  6  1  0
  6  7  1  0
  7  8  1  0
  8  9  1  0
  9 10  1  0
 10 11  2  0
  9 12  1  0
 12 13  1  0
 13 14  1  0
 14 15  1  0
 14 16  1  0
 16 17  1  0
 17 18  1  0
 17 19  1  0
 19 20  1  0
 16 21  1  0
 21 22  1  0
 22 23  1  0
 23 24  1  0
 24 25  1  0
 25 26  1  0
 26 27  1  0
 27 28  1  0
 28 29  1  0
 29 30  1  0
 30 31  1  0
 31 32  1  0
 32 33  1  0
 33 34  1  0
 34 35  1  0
 35 36  1  0
 36 37  1  0
 37 38  1  0
 38 39  1  0
 39 40  1  0
 40 41  1  0
 41 42  1  0
 31 43  1  0
 27 44  1  0
 44 45  1  0
 15  2  1  0
 26 22  1  0
 43 28  1  0
 44  4  1  0
 45  6  1  0
 25 23  1  0
 43 29  1  0
 27 25  1  0
 43 30  1  0
 36 33  1  0
 41 39  1  0
  1 46  1  0
  1 47  1  0
  3 48  1  0
  3 49  1  0
  4 50  1  0
  5 51  1  0
  5 52  1  0
  6 53  1  0
  7 54  1  0
  7 55  1  0
  8 56  1  0
  8 57  1  0
  9 58  1  0
 10 59  1  0
 12 60  1  0
 12 61  1  0
 14 62  1  0
 15 63  1  0
 15 64  1  0
 16 65  1  0
 17 66  1  0
 18 67  1  0
 18 68  1  0
 18 69  1  0
 20 70  1  0
 21 71  1  0
 21 72  1  0
 22 73  1  0
 23 74  1  0
 24 75  1  0
 24 76  1  0
 26 77  1  0
 28 78  1  0
 29 79  1  0
 31 80  1  0
 32 81  1  0
 32 82  1  0
 33 83  1  0
 34 84  1  0
 34 85  1  0
 35 86  1  0
 35 87  1  0
 36 88  1  0
 37 89  1  0
 37 90  1  0
 38 91  1  0
 38 92  1  0
 39 93  1  0
 40 94  1  0
 40 95  1  0
 41 96  1  0
 42 97  1  0
 42 98  1  0
 42 99  1  0
 44100  1  0
 45101  1  0
 45102  1  0
M  END
