
     RDKit          2D

 85 91  0  0  0  0  0  0  0  0999 V2000
   15.9598  -19.1540  -16.1092 C   0  0  0  0  0  0  0  0  0  0  0  0
   16.4571  -19.3282  -14.7048 C   0  0  0  0  0  0  0  0  0  0  0  0
   16.9544  -19.5024  -13.3004 C   0  0  0  0  0  0  0  0  0  0  0  0
   17.4517  -19.6766  -11.8960 C   0  0  0  0  0  0  0  0  0  0  0  0
   17.9489  -19.8509  -10.4916 C   0  0  0  0  0  0  0  0  0  0  0  0
   18.8063  -18.7010  -10.9307 C   0  0  0  0  0  0  0  0  0  0  0  0
   19.8031  -18.1038   -9.9822 C   0  0  0  0  0  0  0  0  0  0  0  0
   19.9427  -18.6563   -8.5948 C   0  0  0  0  0  0  0  0  0  0  0  0
   20.4400  -18.8306   -7.1903 C   0  0  0  0  0  0  0  0  0  0  0  0
   20.9372  -19.0049   -5.7859 C   0  0  0  0  0  0  0  0  0  0  0  0
   21.4345  -19.1791   -4.3815 C   0  0  0  0  0  0  0  0  0  0  0  0
   21.9317  -19.3534   -2.9771 C   0  0  0  0  0  0  0  0  0  0  0  0
   22.4290  -19.5276   -1.5727 C   0  0  0  0  0  0  0  0  0  0  0  0
   22.9263  -19.7019   -0.1683 C   0  0  0  0  0  0  0  0  0  0  0  0
   21.9672  -20.8380    0.0303 O   0  0  0  0  0  0  0  0  0  0  0  0
   21.4699  -20.6638   -1.3741 C   0  0  0  0  0  0  0  0  0  0  0  0
   20.9727  -20.4895   -2.7785 C   0  0  0  0  0  0  0  0  0  0  0  0
   20.3908  -21.5605   -1.9043 C   0  0  0  0  0  0  0  0  0  0  0  0
   21.0700  -21.5038   -0.5681 C   0  0  0  0  0  0  0  0  0  0  0  0
   20.3607  -22.6245    0.1324 C   0  0  0  0  0  0  0  0  0  0  0  0
   19.6513  -23.7453    0.8331 O   0  0  0  0  0  0  0  0  0  0  0  0
   22.1948  -19.8318   -1.4714 C   0  0  0  0  0  0  0  0  0  0  0  0
   19.0853  -19.8062   -8.1556 C   0  0  0  0  0  0  0  0  0  0  0  0
   18.5041  -20.8779   -7.2817 C   0  0  0  0  0  0  0  0  0  0  0  0
   17.9228  -21.9495   -6.4079 C   0  0  0  0  0  0  0  0  0  0  0  0
   17.3416  -23.0212   -5.5341 C   0  0  0  0  0  0  0  0  0  0  0  0
   17.0121  -22.3662   -7.5246 C   0  0  0  0  0  0  0  0  0  0  0  0
   16.1013  -22.7828   -8.6412 C   0  0  0  0  0  0  0  0  0  0  0  0
   15.1906  -23.1994   -9.7579 N   0  0  0  0  0  0  0  0  0  0  0  0
   18.0884  -20.4035   -9.1041 C   0  0  0  0  0  0  0  0  0  0  0  0
   17.4129  -18.1891  -14.9019 C   0  0  0  0  0  0  0  0  0  0  0  0
   18.3687  -17.0500  -15.0990 C   0  0  0  0  0  0  0  0  0  0  0  0
   19.0975  -15.9207  -15.7648 C   0  0  0  0  0  0  0  0  0  0  0  0
   18.0468  -16.6824  -16.5172 C   0  0  0  0  0  0  0  0  0  0  0  0
   15.4626  -18.9797  -17.5136 H   0  0  0  0  0  0  0  0  0  0  0  0
   16.7708  -18.0102  -16.6421 H   0  0  0  0  0  0  0  0  0  0  0  0
   14.9999  -20.2893  -15.9102 H   0  0  0  0  0  0  0  0  0  0  0  0
   15.5012  -20.4673  -14.5077 H   0  0  0  0  0  0  0  0  0  0  0  0
   17.9090  -18.3621  -13.4969 H   0  0  0  0  0  0  0  0  0  0  0  0
   16.0675  -20.6554  -12.9342 H   0  0  0  0  0  0  0  0  0  0  0  0
   18.3415  -18.5265  -12.2636 H   0  0  0  0  0  0  0  0  0  0  0  0
   16.4940  -20.8141  -11.6980 H   0  0  0  0  0  0  0  0  0  0  0  0
   16.9189  -20.9402  -10.5402 H   0  0  0  0  0  0  0  0  0  0  0  0
   19.3875  -17.6294  -11.8045 H   0  0  0  0  0  0  0  0  0  0  0  0
   18.1062  -18.7870  -12.2546 H   0  0  0  0  0  0  0  0  0  0  0  0
   20.8817  -17.2063   -9.4518 H   0  0  0  0  0  0  0  0  0  0  0  0
   20.0381  -17.2396  -11.1855 H   0  0  0  0  0  0  0  0  0  0  0  0
   20.9727  -17.5671   -8.5461 H   0  0  0  0  0  0  0  0  0  0  0  0
   19.5471  -19.9780   -6.8213 H   0  0  0  0  0  0  0  0  0  0  0  0
   21.4005  -17.6959   -7.3897 H   0  0  0  0  0  0  0  0  0  0  0  0
   21.8958  -17.8683   -5.9843 H   0  0  0  0  0  0  0  0  0  0  0  0
   20.0464  -20.1542   -5.4178 H   0  0  0  0  0  0  0  0  0  0  0  0
   20.4226  -20.2862   -4.3559 H   0  0  0  0  0  0  0  0  0  0  0  0
   22.3927  -18.0424   -4.5798 H   0  0  0  0  0  0  0  0  0  0  0  0
   22.8907  -18.2172   -3.1757 H   0  0  0  0  0  0  0  0  0  0  0  0
   23.4414  -18.4212   -1.5986 H   0  0  0  0  0  0  0  0  0  0  0  0
   23.9560  -19.0217    0.6844 H   0  0  0  0  0  0  0  0  0  0  0  0
   20.1523  -20.7536   -4.0062 H   0  0  0  0  0  0  0  0  0  0  0  0
   21.8333  -21.3274    0.7110 H   0  0  0  0  0  0  0  0  0  0  0  0
   21.1921  -22.3848    1.3577 H   0  0  0  0  0  0  0  0  0  0  0  0
   19.5292  -22.8641   -1.0928 H   0  0  0  0  0  0  0  0  0  0  0  0
   18.5910  -24.5267    0.1153 H   0  0  0  0  0  0  0  0  0  0  0  0
   22.8050  -18.7481   -2.3103 H   0  0  0  0  0  0  0  0  0  0  0  0
   19.7854  -19.7203   -6.8318 H   0  0  0  0  0  0  0  0  0  0  0  0
   17.5956  -21.2966   -8.3995 H   0  0  0  0  0  0  0  0  0  0  0  0
   19.3350  -20.5929   -6.0658 H   0  0  0  0  0  0  0  0  0  0  0  0
   18.8336  -21.5329   -5.2912 H   0  0  0  0  0  0  0  0  0  0  0  0
   16.7603  -24.0929   -4.6601 H   0  0  0  0  0  0  0  0  0  0  0  0
   18.2474  -22.6001   -4.4150 H   0  0  0  0  0  0  0  0  0  0  0  0
   16.3716  -23.5699   -6.5381 H   0  0  0  0  0  0  0  0  0  0  0  0
   16.1847  -23.3358   -6.7337 H   0  0  0  0  0  0  0  0  0  0  0  0
   17.7337  -21.4405   -8.4585 H   0  0  0  0  0  0  0  0  0  0  0  0
   15.1977  -23.4578   -7.6524 H   0  0  0  0  0  0  0  0  0  0  0  0
   16.8872  -22.1637   -9.7588 H   0  0  0  0  0  0  0  0  0  0  0  0
   14.2313  -24.3353   -9.5592 H   0  0  0  0  0  0  0  0  0  0  0  0
   15.2391  -22.4801  -11.0733 H   0  0  0  0  0  0  0  0  0  0  0  0
   17.0238  -21.2066   -9.7910 H   0  0  0  0  0  0  0  0  0  0  0  0
   17.8534  -21.2677   -7.9008 H   0  0  0  0  0  0  0  0  0  0  0  0
   16.9171  -18.0162  -16.3070 H   0  0  0  0  0  0  0  0  0  0  0  0
   18.0215  -18.2218  -13.5313 H   0  0  0  0  0  0  0  0  0  0  0  0
   19.0225  -17.0221  -13.7493 H   0  0  0  0  0  0  0  0  0  0  0  0
   20.0044  -15.5005  -14.6464 H   0  0  0  0  0  0  0  0  0  0  0  0
   19.5113  -14.9371  -16.8191 H   0  0  0  0  0  0  0  0  0  0  0  0
   18.0958  -15.9634  -17.8327 H   0  0  0  0  0  0  0  0  0  0  0  0
   16.9775  -17.5302  -17.1397 H   0  0  0  0  0  0  0  0  0  0  0  0
  1  2  1  0
  2  3  1  0
  3  4  1  0
  4  5  1  0
  5  6  1  0
  6  7  1  0
  7  8  1  0
  8  9  1  0
  9 10  1  0
 10 11  1  0
 11 12  1  0
 12 13  1  0
 13 14  1  0
 14 15  1  0
 15 16  1  0
 16 17  1  0
 17 18  1  0
 18 19  1  0
 19 20  1  0
 20 21  1  0
 19 22  1  0
  8 23  1  0
 23 24  1  0
 24 25  1  0
 25 26  1  0
 25 27  1  0
 27 28  1  0
 28 29  1  0
 23 30  1  0
  2 31  1  0
 31 32  1  0
 32 33  1  0
 33 34  1  0
 30  5  1  0
 34 32  1  0
 17 12  1  0
 22 18  1  0
 16 13  1  0
 22 14  1  0
 18 16  1  0
  1 35  1  0
  1 36  1  0
  1 37  1  0
  2 38  1  0
  3 39  1  0
  3 40  1  0
  4 41  1  0
  4 42  1  0
  5 43  1  0
  6 44  1  0
  6 45  1  0
  7 46  1  0
  7 47  1  0
  8 48  1  0
  9 49  1  0
  9 50  1  0
 10 51  1  0
 10 52  1  0
 11 53  1  0
 11 54  1  0
 12 55  1  0
 13 56  1  0
 14 57  1  0
 17 58  1  0
 19 59  1  0
 20 60  1  0
 20 61  1  0
 21 62  1  0
 22 63  1  0
 23 64  1  0
 24 65  1  0
 24 66  1  0
 25 67  1  0
 26 68  1  0
 26 69  1  0
 26 70  1  0
 27 71  1  0
 27 72  1  0
 28 73  1  0
 28 74  1  0
 29 75  1  0
 29 76  1  0
 30 77  1  0
 30 78  1  0
 31 79  1  0
 31 80  1  0
 32 81  1  0
 33 82  1  0
 33 83  1  0
 34 84  1  0
 34 85  1  0
M  END
