
     RDKit          2D

 48 53  0  0  0  0  0  0  0  0999 V2000
    2.7413   29.9466    1.3050 C   0  0  0  0  0  0  0  0  0  0  0  0
    1.7510   29.4630    2.3225 C   0  0  0  0  0  0  0  0  0  0  0  0
    2.8717   28.5648    2.7553 C   0  0  0  0  0  0  0  0  0  0  0  0
    4.2741   28.3953    2.2507 C   0  0  0  0  0  0  0  0  0  0  0  0
    5.1877   27.3961    2.8962 C   0  0  0  0  0  0  0  0  0  0  0  0
    4.6990   26.5663    4.0462 C   0  0  0  0  0  0  0  0  0  0  0  0
    3.2966   26.7357    4.5508 C   0  0  0  0  0  0  0  0  0  0  0  0
    2.3830   27.7350    3.9053 C   0  0  0  0  0  0  0  0  0  0  0  0
    0.9601   28.1203    4.1833 C   0  0  0  0  0  0  0  0  0  0  0  0
    0.5695   29.1883    3.2050 C   0  0  0  0  0  0  0  0  0  0  0  0
   -0.7443   29.8996    3.0721 C   0  0  0  0  0  0  0  0  0  0  0  0
   -1.9922   29.7186    3.8846 C   0  0  0  0  0  0  0  0  0  0  0  0
   -2.2343   28.7817    5.0306 C   0  0  0  0  0  0  0  0  0  0  0  0
   -3.6288   28.9195    5.5659 C   0  0  0  0  0  0  0  0  0  0  0  0
   -4.0773   28.0699    6.7178 C   0  0  0  0  0  0  0  0  0  0  0  0
   -3.1314   27.0824    7.3345 C   0  0  0  0  0  0  0  0  0  0  0  0
   -2.1855   26.0950    7.9511 C   0  0  0  0  0  0  0  0  0  0  0  0
   -1.7369   26.9446    6.7992 C   0  0  0  0  0  0  0  0  0  0  0  0
   -1.2884   27.7943    5.6472 C   0  0  0  0  0  0  0  0  0  0  0  0
    0.1332   27.4999    5.2701 C   0  0  0  0  0  0  0  0  0  0  0  0
    3.7317   30.4302    0.2875 H   0  0  0  0  0  0  0  0  0  0  0  0
    1.7182   30.8996    0.7620 H   0  0  0  0  0  0  0  0  0  0  0  0
    3.3452   29.4752    1.5255 H   0  0  0  0  0  0  0  0  0  0  0  0
    1.1286   30.5248    1.4650 H   0  0  0  0  0  0  0  0  0  0  0  0
    3.3065   28.8979    2.1761 H   0  0  0  0  0  0  0  0  0  0  0  0
    4.7628   29.2251    1.1007 H   0  0  0  0  0  0  0  0  0  0  0  0
    6.5901   27.2266    2.3918 H   0  0  0  0  0  0  0  0  0  0  0  0
    4.6970   25.5557    5.1548 H   0  0  0  0  0  0  0  0  0  0  0  0
    6.1008   26.0458    3.9267 H   0  0  0  0  0  0  0  0  0  0  0  0
    2.8078   25.9059    5.7008 H   0  0  0  0  0  0  0  0  0  0  0  0
    1.7571   26.9802    5.0405 H   0  0  0  0  0  0  0  0  0  0  0  0
   -0.4523   28.5935    4.3597 H   0  0  0  0  0  0  0  0  0  0  0  0
    0.4297   30.2286    2.1336 H   0  0  0  0  0  0  0  0  0  0  0  0
   -0.2224   30.7123    1.9245 H   0  0  0  0  0  0  0  0  0  0  0  0
   -1.5535   30.9297    2.3413 H   0  0  0  0  0  0  0  0  0  0  0  0
   -2.5467   30.7857    2.9880 H   0  0  0  0  0  0  0  0  0  0  0  0
   -3.4125   30.1361    4.1261 H   0  0  0  0  0  0  0  0  0  0  0  0
   -2.7826   27.9829    6.1759 H   0  0  0  0  0  0  0  0  0  0  0  0
   -5.0373   29.4117    5.7197 H   0  0  0  0  0  0  0  0  0  0  0  0
   -3.8425   29.9714    4.5183 H   0  0  0  0  0  0  0  0  0  0  0  0
   -4.9609   27.4937    7.7843 H   0  0  0  0  0  0  0  0  0  0  0  0
   -5.3301   28.8571    6.4716 H   0  0  0  0  0  0  0  0  0  0  0  0
   -4.1954   26.6714    8.3086 H   0  0  0  0  0  0  0  0  0  0  0  0
   -3.0691   25.5188    9.0175 H   0  0  0  0  0  0  0  0  0  0  0  0
   -0.9326   25.3077    8.1974 H   0  0  0  0  0  0  0  0  0  0  0  0
   -0.4505   26.1963    6.9862 H   0  0  0  0  0  0  0  0  0  0  0  0
   -0.2931   26.8274    6.2171 H   0  0  0  0  0  0  0  0  0  0  0  0
    0.8187   26.4458    6.0881 H   0  0  0  0  0  0  0  0  0  0  0  0
  1  2  1  0
  2  3  1  0
  3  4  1  0
  4  5  2  0
  5  6  1  0
  6  7  1  0
  7  8  1  0
  8  9  1  0
  9 10  1  0
 10 11  1  0
 11 12  1  0
 12 13  1  0
 13 14  1  0
 14 15  1  0
 15 16  1  0
 16 17  1  0
 17 18  1  0
 18 19  1  0
 19 20  1  0
 10  2  1  0
 19 13  1  0
  8  3  1  0
 20  9  1  0
 20  7  1  0
 18 16  1  0
  1 21  1  0
  1 22  1  0
  1 23  1  0
  2 24  1  0
  3 25  1  0
  4 26  1  0
  5 27  1  0
  6 28  1  0
  6 29  1  0
  7 30  1  0
  8 31  1  0
  9 32  1  0
 10 33  1  0
 11 34  1  0
 11 35  1  0
 12 36  1  0
 12 37  1  0
 13 38  1  0
 14 39  1  0
 14 40  1  0
 15 41  1  0
 15 42  1  0
 16 43  1  0
 17 44  1  0
 17 45  1  0
 18 46  1  0
 19 47  1  0
 20 48  1  0
M  END
