
     RDKit          2D

 70 73  0  0  0  0  0  0  0  0999 V2000
   15.1116  -15.2966  -13.6217 C   0  0  0  0  0  0  0  0  0  0  0  0
   15.8978  -16.5438  -13.3451 C   0  0  0  0  0  0  0  0  0  0  0  0
   15.4602  -17.4806  -12.2584 C   0  0  0  0  0  0  0  0  0  0  0  0
   16.2463  -18.7278  -11.9818 C   0  0  0  0  0  0  0  0  0  0  0  0
   17.3274  -18.5883  -13.0123 C   0  0  0  0  0  0  0  0  0  0  0  0
   18.4084  -18.4487  -14.0428 C   0  0  0  0  0  0  0  0  0  0  0  0
   19.4894  -18.3091  -15.0733 C   0  0  0  0  0  0  0  0  0  0  0  0
   20.7130  -18.6195  -15.8833 N   0  0  0  0  0  0  0  0  0  0  0  0
   20.2756  -19.5563  -14.7967 C   0  0  0  0  0  0  0  0  0  0  0  0
   21.3423  -20.6046  -14.9113 C   0  0  0  0  0  0  0  0  0  0  0  0
   20.7110  -21.3700  -13.7863 C   0  0  0  0  0  0  0  0  0  0  0  0
   21.9735  -19.8392  -16.0363 C   0  0  0  0  0  0  0  0  0  0  0  0
   23.0403  -20.8875  -16.1510 C   0  0  0  0  0  0  0  0  0  0  0  0
   24.1070  -21.9358  -16.2655 C   0  0  0  0  0  0  0  0  0  0  0  0
   25.1738  -22.9841  -16.3802 C   0  0  0  0  0  0  0  0  0  0  0  0
   22.4090  -21.6529  -15.0259 N   0  0  0  0  0  0  0  0  0  0  0  0
   15.4383  -19.3005  -10.8553 C   0  0  0  0  0  0  0  0  0  0  0  0
   14.6303  -19.8733   -9.7287 C   0  0  0  0  0  0  0  0  0  0  0  0
   15.0409  -21.1690   -9.0942 C   0  0  0  0  0  0  0  0  0  0  0  0
   15.0266  -22.3568   -8.1784 C   0  0  0  0  0  0  0  0  0  0  0  0
   15.0123  -23.5447   -7.2626 C   0  0  0  0  0  0  0  0  0  0  0  0
   16.2596  -21.8919   -9.5863 C   0  0  0  0  0  0  0  0  0  0  0  0
   17.3263  -22.9402   -9.7010 C   0  0  0  0  0  0  0  0  0  0  0  0
   18.3931  -23.9885   -9.8157 C   0  0  0  0  0  0  0  0  0  0  0  0
   17.0676  -21.3192  -10.7128 C   0  0  0  0  0  0  0  0  0  0  0  0
   16.6570  -20.0235  -11.3473 C   0  0  0  0  0  0  0  0  0  0  0  0
   17.8271  -20.1102  -12.2818 N   0  0  0  0  0  0  0  0  0  0  0  0
   14.3256  -14.0494  -13.8983 H   0  0  0  0  0  0  0  0  0  0  0  0
   16.0693  -14.9362  -14.7186 H   0  0  0  0  0  0  0  0  0  0  0  0
   14.1541  -15.6570  -12.5248 H   0  0  0  0  0  0  0  0  0  0  0  0
   17.0364  -16.5399  -14.3216 H   0  0  0  0  0  0  0  0  0  0  0  0
   14.2366  -17.1702  -11.4483 H   0  0  0  0  0  0  0  0  0  0  0  0
   17.8839  -19.3897  -12.8836 H   0  0  0  0  0  0  0  0  0  0  0  0
   16.8590  -17.2872  -13.5935 H   0  0  0  0  0  0  0  0  0  0  0  0
   17.9396  -17.1480  -14.6245 H   0  0  0  0  0  0  0  0  0  0  0  0
   18.7014  -19.6085  -13.4170 H   0  0  0  0  0  0  0  0  0  0  0  0
   19.0787  -17.0134  -15.7077 H   0  0  0  0  0  0  0  0  0  0  0  0
   21.6722  -18.2579  -16.9785 H   0  0  0  0  0  0  0  0  0  0  0  0
   19.7454  -19.9321  -14.0575 H   0  0  0  0  0  0  0  0  0  0  0  0
   20.0797  -22.1354  -12.6612 H   0  0  0  0  0  0  0  0  0  0  0  0
   21.7786  -22.4175  -13.8999 H   0  0  0  0  0  0  0  0  0  0  0  0
   19.8445  -20.7641  -13.5075 H   0  0  0  0  0  0  0  0  0  0  0  0
   22.6048  -19.0739  -17.1613 H   0  0  0  0  0  0  0  0  0  0  0  0
   21.4526  -19.1293  -16.1314 H   0  0  0  0  0  0  0  0  0  0  0  0
   23.6715  -20.1221  -17.2760 H   0  0  0  0  0  0  0  0  0  0  0  0
   24.7363  -21.1721  -17.3929 H   0  0  0  0  0  0  0  0  0  0  0  0
   23.4777  -22.6995  -15.1383 H   0  0  0  0  0  0  0  0  0  0  0  0
   26.2405  -24.0324  -16.4949 H   0  0  0  0  0  0  0  0  0  0  0  0
   24.5470  -23.7457  -15.2502 H   0  0  0  0  0  0  0  0  0  0  0  0
   25.8005  -22.2225  -17.5103 H   0  0  0  0  0  0  0  0  0  0  0  0
   22.7170  -22.9354  -14.3115 H   0  0  0  0  0  0  0  0  0  0  0  0
   14.4976  -18.1351  -10.9375 H   0  0  0  0  0  0  0  0  0  0  0  0
   13.5492  -20.0128   -8.6983 H   0  0  0  0  0  0  0  0  0  0  0  0
   13.8441  -18.6261  -10.0053 H   0  0  0  0  0  0  0  0  0  0  0  0
   13.8173  -20.8585   -8.2842 H   0  0  0  0  0  0  0  0  0  0  0  0
   13.7880  -21.8310   -7.5157 H   0  0  0  0  0  0  0  0  0  0  0  0
   16.0210  -22.8969   -8.6208 H   0  0  0  0  0  0  0  0  0  0  0  0
   14.9980  -24.7326   -6.3468 H   0  0  0  0  0  0  0  0  0  0  0  0
   13.7731  -23.0193   -6.6005 H   0  0  0  0  0  0  0  0  0  0  0  0
   16.2406  -24.2109   -7.8081 H   0  0  0  0  0  0  0  0  0  0  0  0
   16.0224  -22.7338   -8.7431 H   0  0  0  0  0  0  0  0  0  0  0  0
   16.8316  -23.8262   -8.5963 H   0  0  0  0  0  0  0  0  0  0  0  0
   18.0812  -22.3099  -10.8336 H   0  0  0  0  0  0  0  0  0  0  0  0
   19.4598  -25.0368   -9.9303 H   0  0  0  0  0  0  0  0  0  0  0  0
   17.7599  -24.7556   -8.6927 H   0  0  0  0  0  0  0  0  0  0  0  0
   19.0262  -23.2215  -10.9385 H   0  0  0  0  0  0  0  0  0  0  0  0
   18.2147  -21.3380  -11.6793 H   0  0  0  0  0  0  0  0  0  0  0  0
   17.9648  -22.5130  -10.5718 H   0  0  0  0  0  0  0  0  0  0  0  0
   18.8593  -21.1972  -12.3375 H   0  0  0  0  0  0  0  0  0  0  0  0
   18.0565  -19.0315  -13.2985 H   0  0  0  0  0  0  0  0  0  0  0  0
  1  2  1  0
  2  3  2  3
  3  4  1  0
  4  5  1  6
  5  6  1  0
  6  7  1  0
  7  8  1  0
  8  9  1  0
  9 10  1  0
 10 11  1  1
 10 12  1  0
 12 13  1  0
 13 14  1  0
 14 15  1  0
 13 16  1  0
  4 17  1  0
 17 18  1  0
 18 19  1  0
 19 20  1  0
 20 21  1  0
 19 22  1  0
 22 23  1  0
 23 24  1  0
 22 25  1  0
 25 26  1  0
 26 27  1  1
 26  4  1  0
  9  7  1  0
 16 10  1  0
 26 17  1  0
  1 28  1  0
  1 29  1  0
  1 30  1  0
  2 31  1  0
  3 32  1  0
  5 33  1  0
  5 34  1  0
  6 35  1  0
  6 36  1  0
  7 37  1  1
  8 38  1  0
  9 39  1  6
 11 40  1  0
 11 41  1  0
 11 42  1  0
 12 43  1  0
 12 44  1  0
 13 45  1  1
 14 46  1  0
 14 47  1  0
 15 48  1  0
 15 49  1  0
 15 50  1  0
 16 51  1  0
 17 52  1  1
 18 53  1  0
 18 54  1  0
 19 55  1  1
 20 56  1  0
 20 57  1  0
 21 58  1  0
 21 59  1  0
 21 60  1  0
 22 61  1  6
 23 62  1  0
 23 63  1  0
 24 64  1  0
 24 65  1  0
 24 66  1  0
 25 67  1  0
 25 68  1  0
 27 69  1  0
 27 70  1  0
M  END
