
     RDKit          2D

104114  0  0  0  0  0  0  0  0999 V2000
   21.1418  -25.9405   -4.9447 C   0  0  0  0  0  0  0  0  0  0  0  0
   20.4404  -25.2252   -6.0611 C   0  0  0  0  0  0  0  0  0  0  0  0
   19.1209  -25.7312   -6.5641 C   0  0  0  0  0  0  0  0  0  0  0  0
   17.8015  -26.2374   -7.0670 C   0  0  0  0  0  0  0  0  0  0  0  0
   17.8913  -25.0722   -8.0075 C   0  0  0  0  0  0  0  0  0  0  0  0
   16.6663  -25.0797   -8.8730 C   0  0  0  0  0  0  0  0  0  0  0  0
   16.6641  -23.9444   -9.8534 C   0  0  0  0  0  0  0  0  0  0  0  0
   15.4739  -23.5464  -11.0437 C   0  0  0  0  0  0  0  0  0  0  0  0
   16.6654  -22.6373  -10.9793 C   0  0  0  0  0  0  0  0  0  0  0  0
   16.9634  -21.4257  -11.8117 C   0  0  0  0  0  0  0  0  0  0  0  0
   18.2695  -20.8002  -11.4211 C   0  0  0  0  0  0  0  0  0  0  0  0
   19.5629  -20.5737  -10.6958 C   0  0  0  0  0  0  0  0  0  0  0  0
   20.8562  -20.3472   -9.9704 C   0  0  0  0  0  0  0  0  0  0  0  0
   22.1624  -19.7217   -9.5799 O   0  0  0  0  0  0  0  0  0  0  0  0
   21.3426  -19.1197  -10.6824 C   0  0  0  0  0  0  0  0  0  0  0  0
   22.2195  -17.9617  -11.0565 C   0  0  0  0  0  0  0  0  0  0  0  0
   23.0963  -16.8036  -11.4307 C   0  0  0  0  0  0  0  0  0  0  0  0
   23.9732  -15.6456  -11.8049 C   0  0  0  0  0  0  0  0  0  0  0  0
   23.2087  -18.3713  -10.0059 C   0  0  0  0  0  0  0  0  0  0  0  0
   24.1978  -18.7809   -8.9553 C   0  0  0  0  0  0  0  0  0  0  0  0
   18.7560  -19.5728  -12.1330 C   0  0  0  0  0  0  0  0  0  0  0  0
   17.9362  -18.9708  -13.2356 C   0  0  0  0  0  0  0  0  0  0  0  0
   16.6299  -19.5963  -13.6262 C   0  0  0  0  0  0  0  0  0  0  0  0
   16.1435  -20.8238  -12.9142 C   0  0  0  0  0  0  0  0  0  0  0  0
   14.8232  -21.2848  -13.4566 C   0  0  0  0  0  0  0  0  0  0  0  0
   15.4004  -22.1034  -12.3400 C   0  0  0  0  0  0  0  0  0  0  0  0
   14.8429  -25.9621   -9.4103 C   0  0  0  0  0  0  0  0  0  0  0  0
   13.9925  -25.3924  -10.5068 C   0  0  0  0  0  0  0  0  0  0  0  0
   15.2924  -24.7356  -10.1477 N   0  0  0  0  0  0  0  0  0  0  0  0
   13.3707  -24.6091  -11.6247 C   0  0  0  0  0  0  0  0  0  0  0  0
   12.9212  -25.8355  -10.8873 C   0  0  0  0  0  0  0  0  0  0  0  0
   11.6797  -25.8859  -11.7277 C   0  0  0  0  0  0  0  0  0  0  0  0
   12.1291  -24.6594  -12.4651 C   0  0  0  0  0  0  0  0  0  0  0  0
   12.5786  -23.4330  -13.2025 C   0  0  0  0  0  0  0  0  0  0  0  0
   10.8877  -24.7097  -13.3054 C   0  0  0  0  0  0  0  0  0  0  0  0
   13.3748  -26.7428   -9.7822 C   0  0  0  0  0  0  0  0  0  0  0  0
   14.5194  -26.9062   -8.8266 C   0  0  0  0  0  0  0  0  0  0  0  0
   15.8193  -26.2494   -8.4676 C   0  0  0  0  0  0  0  0  0  0  0  0
   16.5209  -26.9649   -7.3513 C   0  0  0  0  0  0  0  0  0  0  0  0
   16.7069  -28.0242   -6.3057 C   0  0  0  0  0  0  0  0  0  0  0  0
   15.2014  -27.4709   -7.8543 C   0  0  0  0  0  0  0  0  0  0  0  0
   14.0829  -28.4684   -7.7906 C   0  0  0  0  0  0  0  0  0  0  0  0
   14.2862  -23.4682  -11.9566 N   0  0  0  0  0  0  0  0  0  0  0  0
   13.9966  -22.4617  -13.0304 C   0  0  0  0  0  0  0  0  0  0  0  0
   22.4613  -25.4344   -4.4418 H   0  0  0  0  0  0  0  0  0  0  0  0
   20.5239  -27.1619   -4.3314 H   0  0  0  0  0  0  0  0  0  0  0  0
   21.0584  -24.0038   -6.6745 H   0  0  0  0  0  0  0  0  0  0  0  0
   19.1696  -26.8500   -5.5661 H   0  0  0  0  0  0  0  0  0  0  0  0
   19.2334  -24.5592   -7.4933 H   0  0  0  0  0  0  0  0  0  0  0  0
   18.1454  -27.2132   -5.9809 H   0  0  0  0  0  0  0  0  0  0  0  0
   18.9160  -23.9950   -8.2067 H   0  0  0  0  0  0  0  0  0  0  0  0
   17.9295  -23.8229   -9.0574 H   0  0  0  0  0  0  0  0  0  0  0  0
   17.1677  -23.2550  -10.0892 H   0  0  0  0  0  0  0  0  0  0  0  0
   16.9803  -23.0660  -10.3855 H   0  0  0  0  0  0  0  0  0  0  0  0
   17.9857  -22.1763  -10.4369 H   0  0  0  0  0  0  0  0  0  0  0  0
   15.8851  -22.4608  -11.6869 H   0  0  0  0  0  0  0  0  0  0  0  0
   18.3935  -21.8877  -10.3954 H   0  0  0  0  0  0  0  0  0  0  0  0
   19.9876  -19.6018  -11.7565 H   0  0  0  0  0  0  0  0  0  0  0  0
   19.1382  -21.5456   -9.6350 H   0  0  0  0  0  0  0  0  0  0  0  0
   20.8189  -21.4959   -9.0066 H   0  0  0  0  0  0  0  0  0  0  0  0
   20.3110  -18.7739  -11.7149 H   0  0  0  0  0  0  0  0  0  0  0  0
   21.2303  -17.5522  -12.1071 H   0  0  0  0  0  0  0  0  0  0  0  0
   22.3893  -16.6943  -12.7491 H   0  0  0  0  0  0  0  0  0  0  0  0
   23.9049  -16.7711  -10.1678 H   0  0  0  0  0  0  0  0  0  0  0  0
   24.8501  -14.4875  -12.1790 H   0  0  0  0  0  0  0  0  0  0  0  0
   22.7811  -14.9211  -12.3562 H   0  0  0  0  0  0  0  0  0  0  0  0
   25.1652  -16.3701  -11.2535 H   0  0  0  0  0  0  0  0  0  0  0  0
   24.2647  -17.3616  -10.3456 H   0  0  0  0  0  0  0  0  0  0  0  0
   22.5334  -19.5062   -9.2945 H   0  0  0  0  0  0  0  0  0  0  0  0
   25.1870  -19.1904   -7.9047 H   0  0  0  0  0  0  0  0  0  0  0  0
   25.1399  -17.7128   -9.4260 H   0  0  0  0  0  0  0  0  0  0  0  0
   23.2556  -19.8489   -8.4846 H   0  0  0  0  0  0  0  0  0  0  0  0
   19.6329  -18.4147  -12.5072 H   0  0  0  0  0  0  0  0  0  0  0  0
   19.9563  -19.6234  -11.2349 H   0  0  0  0  0  0  0  0  0  0  0  0
   17.5198  -18.0393  -14.3350 H   0  0  0  0  0  0  0  0  0  0  0  0
   19.0978  -18.0219  -13.2268 H   0  0  0  0  0  0  0  0  0  0  0  0
   15.3367  -19.8228  -14.3514 H   0  0  0  0  0  0  0  0  0  0  0  0
   16.6672  -18.4476  -14.5900 H   0  0  0  0  0  0  0  0  0  0  0  0
   17.4317  -20.1211  -12.6030 H   0  0  0  0  0  0  0  0  0  0  0  0
   14.2543  -20.4599  -14.5727 H   0  0  0  0  0  0  0  0  0  0  0  0
   16.5992  -21.2053  -12.2609 H   0  0  0  0  0  0  0  0  0  0  0  0
   16.6031  -22.1486  -11.4449 H   0  0  0  0  0  0  0  0  0  0  0  0
   15.6577  -26.5692   -8.3069 H   0  0  0  0  0  0  0  0  0  0  0  0
   13.1107  -26.5484  -10.1379 H   0  0  0  0  0  0  0  0  0  0  0  0
   12.1101  -27.0176  -10.4456 H   0  0  0  0  0  0  0  0  0  0  0  0
   10.3927  -26.0853  -12.4719 H   0  0  0  0  0  0  0  0  0  0  0  0
   11.0823  -27.1093  -11.0982 H   0  0  0  0  0  0  0  0  0  0  0  0
   12.9370  -22.2734  -14.0840 H   0  0  0  0  0  0  0  0  0  0  0  0
   11.9193  -23.7544  -14.5109 H   0  0  0  0  0  0  0  0  0  0  0  0
   13.3855  -22.6757  -12.1897 H   0  0  0  0  0  0  0  0  0  0  0  0
    9.6462  -24.7600  -14.1458 H   0  0  0  0  0  0  0  0  0  0  0  0
   11.2838  -23.6413  -14.2810 H   0  0  0  0  0  0  0  0  0  0  0  0
   10.1889  -25.7903  -12.5348 H   0  0  0  0  0  0  0  0  0  0  0  0
   12.3649  -27.8301   -9.5638 H   0  0  0  0  0  0  0  0  0  0  0  0
   13.4572  -27.9548   -8.6788 H   0  0  0  0  0  0  0  0  0  0  0  0
   15.3816  -27.4632   -7.7328 H   0  0  0  0  0  0  0  0  0  0  0  0
   16.8928  -29.0835   -5.2601 H   0  0  0  0  0  0  0  0  0  0  0  0
   18.0271  -27.5378   -5.7855 H   0  0  0  0  0  0  0  0  0  0  0  0
   15.4321  -28.7688   -6.5710 H   0  0  0  0  0  0  0  0  0  0  0  0
   12.9645  -29.4658   -7.7269 H   0  0  0  0  0  0  0  0  0  0  0  0
   14.6412  -29.2981   -6.6725 H   0  0  0  0  0  0  0  0  0  0  0  0
   13.2519  -27.8819   -8.8931 H   0  0  0  0  0  0  0  0  0  0  0  0
   13.3090  -21.7338  -14.1473 H   0  0  0  0  0  0  0  0  0  0  0  0
   12.7029  -23.1441  -13.3630 H   0  0  0  0  0  0  0  0  0  0  0  0
  1  2  2  3
  2  3  1  0
  3  4  1  0
  4  5  1  0
  5  6  2  0
  6  7  1  0
  7  8  1  0
  8  9  1  0
  9 10  1  0
 10 11  1  0
 11 12  1  0
 12 13  1  0
 13 14  1  0
 14 15  1  0
 15 16  1  0
 16 17  1  0
 17 18  1  0
 16 19  1  0
 19 20  1  0
 11 21  1  0
 21 22  1  0
 22 23  1  0
 23 24  1  0
 24 25  1  0
 25 26  1  0
 26 27  1  0
 27 28  1  0
 28 29  1  0
 28 30  1  0
 30 31  1  0
 31 32  1  0
 32 33  1  0
 33 34  1  0
 33 35  1  0
 31 36  1  0
 36 37  1  0
 37 38  1  0
 38 39  1  0
 39 40  1  0
 39 41  1  0
 41 42  1  0
 30 43  1  0
 43 44  1  0
 39  4  1  0
 38  6  1  0
 29  8  1  0
 33 30  1  0
 41 36  1  0
 43  8  1  0
 24 10  1  0
 44 25  1  0
 15 13  1  0
 29 27  1  0
 41 38  1  0
  1 45  1  0
  1 46  1  0
  2 47  1  0
  3 48  1  0
  3 49  1  0
  4 50  1  0
  5 51  1  0
  7 52  1  0
  7 53  1  0
  9 54  1  0
  9 55  1  0
 10 56  1  0
 11 57  1  0
 12 58  1  0
 12 59  1  0
 13 60  1  0
 15 61  1  0
 16 62  1  0
 17 63  1  0
 17 64  1  0
 18 65  1  0
 18 66  1  0
 18 67  1  0
 19 68  1  0
 19 69  1  0
 20 70  1  0
 20 71  1  0
 20 72  1  0
 21 73  1  0
 21 74  1  0
 22 75  1  0
 22 76  1  0
 23 77  1  0
 23 78  1  0
 24 79  1  0
 25 80  1  0
 26 81  1  0
 26 82  1  0
 27 83  1  0
 28 84  1  0
 31 85  1  0
 32 86  1  0
 32 87  1  0
 34 88  1  0
 34 89  1  0
 34 90  1  0
 35 91  1  0
 35 92  1  0
 35 93  1  0
 36 94  1  0
 37 95  1  0
 37 96  1  0
 40 97  1  0
 40 98  1  0
 40 99  1  0
 42100  1  0
 42101  1  0
 42102  1  0
 44103  1  0
 44104  1  0
M  END
