
     RDKit          2D

 74 80  0  0  0  0  0  0  0  0999 V2000
   20.1198  -21.7007  -12.2921 C   0  0  0  0  0  0  0  0  0  0  0  0
   20.6648  -21.2298  -13.6079 C   0  0  0  0  0  0  0  0  0  0  0  0
   21.2097  -20.7590  -14.9236 C   0  0  0  0  0  0  0  0  0  0  0  0
   21.7547  -20.2881  -16.2395 C   0  0  0  0  0  0  0  0  0  0  0  0
   22.2997  -19.8173  -17.5553 C   0  0  0  0  0  0  0  0  0  0  0  0
   22.8446  -19.3465  -18.8711 C   0  0  0  0  0  0  0  0  0  0  0  0
   23.3896  -18.8756  -20.1869 O   0  0  0  0  0  0  0  0  0  0  0  0
   23.5371  -20.6641  -19.0559 O   0  0  0  0  0  0  0  0  0  0  0  0
   21.6053  -18.5004  -17.3715 C   0  0  0  0  0  0  0  0  0  0  0  0
   21.1400  -17.1015  -17.6486 C   0  0  0  0  0  0  0  0  0  0  0  0
   22.0235  -17.8071  -18.6343 C   0  0  0  0  0  0  0  0  0  0  0  0
   19.9636  -19.9161  -13.4282 C   0  0  0  0  0  0  0  0  0  0  0  0
   19.5486  -20.6079  -12.1636 C   0  0  0  0  0  0  0  0  0  0  0  0
   18.6612  -19.9041  -11.1802 C   0  0  0  0  0  0  0  0  0  0  0  0
   17.8386  -19.6550   -9.9508 C   0  0  0  0  0  0  0  0  0  0  0  0
   17.7172  -20.7197   -8.9012 C   0  0  0  0  0  0  0  0  0  0  0  0
   16.8946  -20.4706   -7.6718 C   0  0  0  0  0  0  0  0  0  0  0  0
   16.2362  -20.7061   -6.3449 C   0  0  0  0  0  0  0  0  0  0  0  0
   17.0814  -21.7797   -6.9637 C   0  0  0  0  0  0  0  0  0  0  0  0
   16.9600  -22.8444   -5.9141 C   0  0  0  0  0  0  0  0  0  0  0  0
   16.8386  -23.9091   -4.8645 C   0  0  0  0  0  0  0  0  0  0  0  0
   16.7172  -24.9737   -3.8149 C   0  0  0  0  0  0  0  0  0  0  0  0
   17.4672  -25.9281   -4.6962 C   0  0  0  0  0  0  0  0  0  0  0  0
   17.3457  -26.9928   -3.6465 C   0  0  0  0  0  0  0  0  0  0  0  0
   16.8656  -27.4377   -2.2969 C   0  0  0  0  0  0  0  0  0  0  0  0
   16.5957  -26.0384   -2.7653 C   0  0  0  0  0  0  0  0  0  0  0  0
   18.1887  -18.5086  -11.4613 C   0  0  0  0  0  0  0  0  0  0  0  0
   17.7162  -17.1129  -11.7425 C   0  0  0  0  0  0  0  0  0  0  0  0
   18.1311  -16.4211  -13.0070 B   0  0  0  0  0  0  0  0  0  0  0  0
   18.6036  -17.8167  -12.7259 C   0  0  0  0  0  0  0  0  0  0  0  0
   19.4911  -18.5204  -13.7093 C   0  0  0  0  0  0  0  0  0  0  0  0
   19.6638  -22.3284  -11.0084 H   0  0  0  0  0  0  0  0  0  0  0  0
   19.6909  -21.0826  -12.0287 H   0  0  0  0  0  0  0  0  0  0  0  0
   20.8158  -23.0169  -12.4749 H   0  0  0  0  0  0  0  0  0  0  0  0
   21.3659  -22.5436  -13.7876 H   0  0  0  0  0  0  0  0  0  0  0  0
   21.9036  -22.0760  -15.1076 H   0  0  0  0  0  0  0  0  0  0  0  0
   20.6683  -19.3671  -15.0636 H   0  0  0  0  0  0  0  0  0  0  0  0
   21.8738  -21.7110  -16.6993 H   0  0  0  0  0  0  0  0  0  0  0  0
   21.5700  -18.9334  -15.6227 H   0  0  0  0  0  0  0  0  0  0  0  0
   22.9940  -21.1342  -17.7390 H   0  0  0  0  0  0  0  0  0  0  0  0
   22.3046  -17.9540  -19.0102 H   0  0  0  0  0  0  0  0  0  0  0  0
   23.0614  -17.4995  -20.6853 H   0  0  0  0  0  0  0  0  0  0  0  0
   24.3553  -20.9152  -20.2877 H   0  0  0  0  0  0  0  0  0  0  0  0
   20.8792  -18.5665  -16.0607 H   0  0  0  0  0  0  0  0  0  0  0  0
   20.3191  -16.8516  -16.4183 H   0  0  0  0  0  0  0  0  0  0  0  0
   20.9598  -15.7895  -18.3529 H   0  0  0  0  0  0  0  0  0  0  0  0
   22.1501  -16.7401  -19.6810 H   0  0  0  0  0  0  0  0  0  0  0  0
   22.9050  -18.6349  -19.5218 H   0  0  0  0  0  0  0  0  0  0  0  0
   20.5445  -19.5146  -14.7516 H   0  0  0  0  0  0  0  0  0  0  0  0
   19.3209  -21.5546  -11.0226 H   0  0  0  0  0  0  0  0  0  0  0  0
   20.3029  -21.8653  -12.4798 H   0  0  0  0  0  0  0  0  0  0  0  0
   18.8480  -21.2132  -10.4721 H   0  0  0  0  0  0  0  0  0  0  0  0
   17.1374  -18.3412   -9.7711 H   0  0  0  0  0  0  0  0  0  0  0  0
   18.4184  -22.0335   -9.0809 H   0  0  0  0  0  0  0  0  0  0  0  0
   16.4221  -19.0749   -7.9529 H   0  0  0  0  0  0  0  0  0  0  0  0
   15.5350  -19.3924   -6.1651 H   0  0  0  0  0  0  0  0  0  0  0  0
   15.7285  -21.2451   -5.0402 H   0  0  0  0  0  0  0  0  0  0  0  0
   17.9689  -22.4834   -7.9472 H   0  0  0  0  0  0  0  0  0  0  0  0
   17.8404  -23.7465   -6.7273 H   0  0  0  0  0  0  0  0  0  0  0  0
   16.0713  -22.0788   -4.9791 H   0  0  0  0  0  0  0  0  0  0  0  0
   15.9605  -23.0060   -4.0501 H   0  0  0  0  0  0  0  0  0  0  0  0
   17.7249  -24.6756   -5.8008 H   0  0  0  0  0  0  0  0  0  0  0  0
   15.9671  -24.0194   -2.9336 H   0  0  0  0  0  0  0  0  0  0  0  0
   18.2172  -26.8825   -5.5774 H   0  0  0  0  0  0  0  0  0  0  0  0
   17.6791  -24.9876   -5.8454 H   0  0  0  0  0  0  0  0  0  0  0  0
   18.0388  -28.1902   -4.2262 H   0  0  0  0  0  0  0  0  0  0  0  0
   17.3621  -28.8531   -2.2973 H   0  0  0  0  0  0  0  0  0  0  0  0
   16.2130  -27.3910   -0.9471 H   0  0  0  0  0  0  0  0  0  0  0  0
   15.8398  -25.3922   -1.6423 H   0  0  0  0  0  0  0  0  0  0  0  0
   18.8040  -18.1775  -12.7887 H   0  0  0  0  0  0  0  0  0  0  0  0
   16.8287  -16.4092  -10.7590 H   0  0  0  0  0  0  0  0  0  0  0  0
   18.0979  -15.2159  -13.8994 H   0  0  0  0  0  0  0  0  0  0  0  0
   20.2667  -18.6003  -14.9907 H   0  0  0  0  0  0  0  0  0  0  0  0
   19.3042  -17.2113  -14.4174 H   0  0  0  0  0  0  0  0  0  0  0  0
  1  2  1  0
  2  3  1  0
  3  4  1  0
  4  5  1  0
  5  6  1  0
  6  7  1  0
  6  8  1  0
  5  9  1  0
  9 10  1  0
 10 11  1  0
  2 12  1  0
 12 13  1  0
 13 14  1  0
 14 15  1  0
 15 16  2  3
 16 17  1  0
 17 18  1  0
 18 19  1  0
 19 20  1  0
 20 21  1  0
 21 22  1  0
 22 23  1  0
 23 24  1  0
 24 25  1  0
 25 26  1  0
 14 27  1  0
 27 28  1  0
 28 29  1  0
 30 29  1  6
 30 31  1  0
 11  9  1  0
 31 12  1  0
 19 17  1  0
 26 22  1  0
 30 27  1  0
 26 24  1  0
 30 28  1  0
  1 32  1  0
  1 33  1  0
  1 34  1  0
  2 35  1  1
  3 36  1  0
  3 37  1  0
  4 38  1  0
  4 39  1  0
  5 40  1  6
  6 41  1  0
  7 42  1  0
  8 43  1  0
  9 44  1  0
 10 45  1  0
 10 46  1  0
 11 47  1  0
 11 48  1  0
 12 49  1  1
 13 50  1  0
 13 51  1  0
 14 52  1  1
 15 53  1  0
 16 54  1  0
 17 55  1  1
 18 56  1  0
 18 57  1  0
 19 58  1  6
 20 59  1  0
 20 60  1  0
 21 61  1  0
 21 62  1  0
 22 63  1  6
 23 64  1  0
 23 65  1  0
 24 66  1  6
 25 67  1  0
 25 68  1  0
 26 69  1  6
 27 70  1  1
 28 71  1  1
 29 72  1  0
 31 73  1  0
 31 74  1  0
M  END
