
     RDKit          2D

 25 27  0  0  0  0  0  0  0  0999 V2000
   -3.0196   26.7413    4.8015 C   0  0  0  0  0  0  0  0  0  0  0  0
   -3.5943   27.6615    5.8374 C   0  0  0  0  0  0  0  0  0  0  0  0
   -4.9471   27.3813    6.4217 C   0  0  0  0  0  0  0  0  0  0  0  0
   -6.2584   26.6993    6.6770 C   0  0  0  0  0  0  0  0  0  0  0  0
   -7.2193   27.2716    7.6767 C   0  0  0  0  0  0  0  0  0  0  0  0
   -8.1801   27.8439    8.6763 C   0  0  0  0  0  0  0  0  0  0  0  0
   -9.2920   26.8424    8.5719 O   0  0  0  0  0  0  0  0  0  0  0  0
   -6.8688   28.5259    8.4210 C   0  0  0  0  0  0  0  0  0  0  0  0
   -5.5574   29.2079    8.1656 C   0  0  0  0  0  0  0  0  0  0  0  0
   -4.2460   29.8898    7.9102 C   0  0  0  0  0  0  0  0  0  0  0  0
   -4.5965   28.6355    7.1660 C   0  0  0  0  0  0  0  0  0  0  0  0
   -1.6668   27.0215    4.2172 H   0  0  0  0  0  0  0  0  0  0  0  0
   -3.7976   25.5411    4.3499 H   0  0  0  0  0  0  0  0  0  0  0  0
   -2.8162   28.8617    6.2890 H   0  0  0  0  0  0  0  0  0  0  0  0
   -4.8278   26.2243    5.4745 H   0  0  0  0  0  0  0  0  0  0  0  0
   -5.6838   25.7792    5.6412 H   0  0  0  0  0  0  0  0  0  0  0  0
   -7.3703   25.6978    6.5726 H   0  0  0  0  0  0  0  0  0  0  0  0
   -8.1789   26.1538    7.3944 H   0  0  0  0  0  0  0  0  0  0  0  0
   -8.7549   28.7641    9.7122 H   0  0  0  0  0  0  0  0  0  0  0  0
  -10.5230   26.9979    9.4147 H   0  0  0  0  0  0  0  0  0  0  0  0
   -7.2212   29.5804    9.4278 H   0  0  0  0  0  0  0  0  0  0  0  0
   -5.9097   30.2624    9.1724 H   0  0  0  0  0  0  0  0  0  0  0  0
   -4.3653   31.0467    8.8574 H   0  0  0  0  0  0  0  0  0  0  0  0
   -2.8932   30.1700    7.3259 H   0  0  0  0  0  0  0  0  0  0  0  0
   -5.9542   28.2706    7.6889 H   0  0  0  0  0  0  0  0  0  0  0  0
  1  2  2  3
  2  3  1  0
  3  4  1  0
  4  5  1  0
  5  6  1  0
  6  7  1  0
  6  8  1  0
  8  9  1  0
  9 10  1  0
 10 11  1  0
 11  3  1  0
  8  5  1  0
 11  9  1  0
  1 12  1  0
  1 13  1  0
  2 14  1  0
  3 15  1  0
  4 16  1  0
  4 17  1  0
  5 18  1  0
  6 19  1  0
  7 20  1  0
  8 21  1  0
  9 22  1  0
 10 23  1  0
 10 24  1  0
 11 25  1  0
M  END
