
     RDKit          2D

 58 61  0  0  0  0  0  0  0  0999 V2000
    2.4231   31.5546    2.1653 C   0  0  0  0  0  0  0  0  0  0  0  0
    2.7978   30.2557    2.8150 C   0  0  0  0  0  0  0  0  0  0  0  0
    3.1726   28.9566    3.4647 N   0  0  0  0  0  0  0  0  0  0  0  0
    4.2183   28.0372    4.0226 C   0  0  0  0  0  0  0  0  0  0  0  0
    4.8379   26.8294    4.6607 C   0  0  0  0  0  0  0  0  0  0  0  0
    2.7758   27.6260    4.0321 C   0  0  0  0  0  0  0  0  0  0  0  0
    1.2922   27.6837    3.8189 C   0  0  0  0  0  0  0  0  0  0  0  0
   -0.1915   27.7415    3.6057 C   0  0  0  0  0  0  0  0  0  0  0  0
   -0.6288   29.0214    2.9570 C   0  0  0  0  0  0  0  0  0  0  0  0
   -1.9454   29.5957    2.5252 O   0  0  0  0  0  0  0  0  0  0  0  0
   -3.3701   29.1281    2.5631 C   0  0  0  0  0  0  0  0  0  0  0  0
   -4.0684   27.8925    3.0485 O   0  0  0  0  0  0  0  0  0  0  0  0
   -3.6311   26.6127    3.6971 C   0  0  0  0  0  0  0  0  0  0  0  0
   -2.3145   26.0383    4.1290 C   0  0  0  0  0  0  0  0  0  0  0  0
   -1.5233   24.9231    4.7458 C   0  0  0  0  0  0  0  0  0  0  0  0
   -0.7322   23.8078    5.3625 C   0  0  0  0  0  0  0  0  0  0  0  0
    0.0589   22.6926    5.9793 C   0  0  0  0  0  0  0  0  0  0  0  0
    0.8501   21.5774    6.5960 C   0  0  0  0  0  0  0  0  0  0  0  0
    1.6412   20.4621    7.2128 C   0  0  0  0  0  0  0  0  0  0  0  0
    2.8292   21.3702    7.3309 C   0  0  0  0  0  0  0  0  0  0  0  0
    3.6203   20.2550    7.9477 N   0  0  0  0  0  0  0  0  0  0  0  0
    3.7115   18.8351    8.4227 C   0  0  0  0  0  0  0  0  0  0  0  0
    2.4323   19.3470    7.8295 C   0  0  0  0  0  0  0  0  0  0  0  0
   -0.8897   26.5059    4.0911 C   0  0  0  0  0  0  0  0  0  0  0  0
    2.0484   32.8537    1.5156 H   0  0  0  0  0  0  0  0  0  0  0  0
    3.8655   31.9665    2.1569 H   0  0  0  0  0  0  0  0  0  0  0  0
    0.9808   31.1429    2.1738 H   0  0  0  0  0  0  0  0  0  0  0  0
    1.3071   30.1724    2.6704 H   0  0  0  0  0  0  0  0  0  0  0  0
    4.2407   30.6654    2.8021 H   0  0  0  0  0  0  0  0  0  0  0  0
    5.4456   28.8681    3.7914 H   0  0  0  0  0  0  0  0  0  0  0  0
    5.4573   25.6215    5.2989 H   0  0  0  0  0  0  0  0  0  0  0  0
    3.6949   26.1338    4.8404 H   0  0  0  0  0  0  0  0  0  0  0  0
    6.1934   27.4598    4.5379 H   0  0  0  0  0  0  0  0  0  0  0  0
    2.7188   26.3997    4.5938 H   0  0  0  0  0  0  0  0  0  0  0  0
    1.3675   26.3645    4.0951 H   0  0  0  0  0  0  0  0  0  0  0  0
    1.2085   29.1496    3.5120 H   0  0  0  0  0  0  0  0  0  0  0  0
    0.3960   30.0586    2.6046 H   0  0  0  0  0  0  0  0  0  0  0  0
   -4.8226   29.3632    2.2715 H   0  0  0  0  0  0  0  0  0  0  0  0
   -3.4238   30.4854    1.9267 H   0  0  0  0  0  0  0  0  0  0  0  0
   -4.1393   25.3091    4.2380 H   0  0  0  0  0  0  0  0  0  0  0  0
   -5.1205   26.4922    3.5659 H   0  0  0  0  0  0  0  0  0  0  0  0
   -3.1891   24.8947    4.5497 H   0  0  0  0  0  0  0  0  0  0  0  0
   -2.7803   24.1206    4.9071 H   0  0  0  0  0  0  0  0  0  0  0  0
   -0.8090   25.2742    4.7006 H   0  0  0  0  0  0  0  0  0  0  0  0
   -1.9951   23.0243    5.5658 H   0  0  0  0  0  0  0  0  0  0  0  0
    0.5307   24.5914    5.1592 H   0  0  0  0  0  0  0  0  0  0  0  0
    1.3220   23.4754    5.7744 H   0  0  0  0  0  0  0  0  0  0  0  0
   -1.2042   21.9099    6.1841 H   0  0  0  0  0  0  0  0  0  0  0  0
    1.5161   22.1572    6.5274 H   0  0  0  0  0  0  0  0  0  0  0  0
   -0.3836   20.7251    6.6373 H   0  0  0  0  0  0  0  0  0  0  0  0
    0.4532   19.5541    7.0946 H   0  0  0  0  0  0  0  0  0  0  0  0
    4.0172   22.2784    7.4491 H   0  0  0  0  0  0  0  0  0  0  0  0
    2.4510   22.0892    6.9780 H   0  0  0  0  0  0  0  0  0  0  0  0
    5.1301   18.8140    8.9097 H   0  0  0  0  0  0  0  0  0  0  0  0
    3.3099   17.4226    8.7286 H   0  0  0  0  0  0  0  0  0  0  0  0
    1.4895   18.1811    7.8750 H   0  0  0  0  0  0  0  0  0  0  0  0
    0.2451   26.1845    4.3828 H   0  0  0  0  0  0  0  0  0  0  0  0
   -0.5449   25.7832    4.4697 H   0  0  0  0  0  0  0  0  0  0  0  0
  1  2  1  0
  2  3  1  0
  3  4  1  0
  4  5  1  0
  4  6  1  0
  6  7  1  0
  7  8  1  0
  8  9  2  0
  9 10  1  0
 10 11  1  0
 11 12  1  0
 12 13  1  0
 13 14  1  0
 14 15  1  0
 15 16  1  0
 16 17  1  0
 17 18  1  0
 18 19  1  0
 19 20  1  0
 20 21  1  0
 21 22  1  0
 22 23  1  0
 14 24  1  0
  6  3  1  0
 24  8  1  0
 23 19  1  0
 23 21  1  0
  1 25  1  0
  1 26  1  0
  1 27  1  0
  2 28  1  0
  2 29  1  0
  4 30  1  0
  5 31  1  0
  5 32  1  0
  5 33  1  0
  6 34  1  0
  7 35  1  0
  7 36  1  0
  9 37  1  0
 11 38  1  0
 11 39  1  0
 13 40  1  0
 13 41  1  0
 14 42  1  0
 15 43  1  0
 15 44  1  0
 16 45  1  0
 16 46  1  0
 17 47  1  0
 17 48  1  0
 18 49  1  0
 18 50  1  0
 19 51  1  0
 20 52  1  0
 20 53  1  0
 22 54  1  0
 22 55  1  0
 23 56  1  0
 24 57  1  0
 24 58  1  0
M  END
