
     RDKit          2D

 33 32  0  0  0  0  0  0  0  0999 V2000
   18.9651  -23.7532  -13.6004 C   0  0  0  0  0  0  0  0  0  0  0  0
   19.0794  -23.0223  -12.2955 C   0  0  0  0  0  0  0  0  0  0  0  0
   19.1937  -22.2913  -10.9907 C   0  0  0  0  0  0  0  0  0  0  0  0
   20.0490  -21.2497  -11.6490 O   0  0  0  0  0  0  0  0  0  0  0  0
   19.3080  -21.5604   -9.6858 C   0  0  0  0  0  0  0  0  0  0  0  0
   19.4223  -20.8295   -8.3809 O   0  0  0  0  0  0  0  0  0  0  0  0
   18.5112  -21.1807   -7.2423 C   0  0  0  0  0  0  0  0  0  0  0  0
   17.6000  -21.5318   -6.1036 O   0  0  0  0  0  0  0  0  0  0  0  0
   16.5746  -22.6139   -6.2698 P   0  0  0  0  0  0  0  0  0  0  0  0
   15.6634  -22.9650   -5.1312 C   0  0  0  0  0  0  0  0  0  0  0  0
   14.7523  -23.3161   -3.9925 O   0  0  0  0  0  0  0  0  0  0  0  0
   16.4603  -23.3448   -7.5747 C   0  0  0  0  0  0  0  0  0  0  0  0
   16.9395  -22.1230   -8.3011 C   0  0  0  0  0  0  0  0  0  0  0  0
   15.9810  -24.5665   -6.8484 O   0  0  0  0  0  0  0  0  0  0  0  0
   18.8508  -24.4841  -14.9053 H   0  0  0  0  0  0  0  0  0  0  0  0
   20.3923  -23.4153  -13.9147 H   0  0  0  0  0  0  0  0  0  0  0  0
   17.5378  -24.0910  -13.2862 H   0  0  0  0  0  0  0  0  0  0  0  0
   17.6510  -23.3570  -11.9829 H   0  0  0  0  0  0  0  0  0  0  0  0
   20.5077  -22.6875  -12.6082 H   0  0  0  0  0  0  0  0  0  0  0  0
   18.3384  -23.3330  -10.3323 H   0  0  0  0  0  0  0  0  0  0  0  0
   20.9281  -20.2420  -10.9695 H   0  0  0  0  0  0  0  0  0  0  0  0
   18.7636  -22.2546   -9.2493 H   0  0  0  0  0  0  0  0  0  0  0  0
   20.1454  -20.4214  -10.1870 H   0  0  0  0  0  0  0  0  0  0  0  0
   19.1692  -20.1339   -6.3930 H   0  0  0  0  0  0  0  0  0  0  0  0
   18.2369  -21.7913   -7.9636 H   0  0  0  0  0  0  0  0  0  0  0  0
   16.3204  -21.9173   -4.2824 H   0  0  0  0  0  0  0  0  0  0  0  0
   15.0064  -24.0128   -5.9800 H   0  0  0  0  0  0  0  0  0  0  0  0
   14.8666  -22.5852   -2.6876 H   0  0  0  0  0  0  0  0  0  0  0  0
   16.3460  -24.0757   -8.8796 H   0  0  0  0  0  0  0  0  0  0  0  0
   17.1942  -21.4737   -8.6870 H   0  0  0  0  0  0  0  0  0  0  0  0
   16.5454  -22.7452   -9.6078 H   0  0  0  0  0  0  0  0  0  0  0  0
   17.4379  -21.2237   -7.2089 H   0  0  0  0  0  0  0  0  0  0  0  0
   16.0338  -25.9070   -7.5194 H   0  0  0  0  0  0  0  0  0  0  0  0
  1  2  1  0
  2  3  1  0
  3  4  1  0
  3  5  1  0
  5  6  1  0
  6  7  1  0
  7  8  1  0
  8  9  1  0
  9 10  1  0
 10 11  1  0
  9 12  1  0
 12 13  1  0
 12 14  1  0
  1 15  1  0
  1 16  1  0
  1 17  1  0
  2 18  1  0
  2 19  1  0
  3 20  1  0
  4 21  1  0
  5 22  1  0
  5 23  1  0
  7 24  1  0
  7 25  1  0
 10 26  1  0
 10 27  1  0
 11 28  1  0
 12 29  1  0
 13 30  1  0
 13 31  1  0
 13 32  1  0
 14 33  1  0
M  END
