
     RDKit          2D

 52 54  0  0  0  0  0  0  0  0999 V2000
  -10.3011   30.8027    9.8580 C   0  0  0  0  0  0  0  0  0  0  0  0
   -9.0720   31.2145   10.6129 C   0  0  0  0  0  0  0  0  0  0  0  0
   -7.7151   30.8230   10.1075 C   0  0  0  0  0  0  0  0  0  0  0  0
   -6.3582   30.4314    9.6021 C   0  0  0  0  0  0  0  0  0  0  0  0
   -5.0012   30.0399    9.0967 C   0  0  0  0  0  0  0  0  0  0  0  0
   -4.8733   29.2364    7.8365 C   0  0  0  0  0  0  0  0  0  0  0  0
   -3.5164   28.8449    7.3312 C   0  0  0  0  0  0  0  0  0  0  0  0
   -2.0239   28.7170    7.2541 C   0  0  0  0  0  0  0  0  0  0  0  0
   -1.3931   27.9659    6.1191 C   0  0  0  0  0  0  0  0  0  0  0  0
   -2.2548   27.3429    5.0612 C   0  0  0  0  0  0  0  0  0  0  0  0
   -1.9204   26.5489    3.8333 C   0  0  0  0  0  0  0  0  0  0  0  0
   -0.5027   26.7547    4.2779 C   0  0  0  0  0  0  0  0  0  0  0  0
    0.9151   26.9605    4.7225 C   0  0  0  0  0  0  0  0  0  0  0  0
    2.4133   26.8882    4.7340 C   0  0  0  0  0  0  0  0  0  0  0  0
    1.6392   26.2313    3.6299 C   0  0  0  0  0  0  0  0  0  0  0  0
   -3.2063   26.1861    3.1515 C   0  0  0  0  0  0  0  0  0  0  0  0
   -2.3066   25.5110    2.1591 C   0  0  0  0  0  0  0  0  0  0  0  0
   -4.3354   26.7559    3.9580 C   0  0  0  0  0  0  0  0  0  0  0  0
   -3.7474   27.4708    5.1383 C   0  0  0  0  0  0  0  0  0  0  0  0
   -4.3782   28.2218    6.2732 C   0  0  0  0  0  0  0  0  0  0  0  0
  -11.6580   31.1942   10.3634 H   0  0  0  0  0  0  0  0  0  0  0  0
  -10.1732   29.9993    8.5977 H   0  0  0  0  0  0  0  0  0  0  0  0
   -9.2000   32.0179   11.8731 H   0  0  0  0  0  0  0  0  0  0  0  0
   -7.0793   31.5269   11.2695 H   0  0  0  0  0  0  0  0  0  0  0  0
   -8.3510   30.1191    8.9455 H   0  0  0  0  0  0  0  0  0  0  0  0
   -5.7224   31.1338   10.7650 H   0  0  0  0  0  0  0  0  0  0  0  0
   -6.9940   29.7290    8.4392 H   0  0  0  0  0  0  0  0  0  0  0  0
   -3.7722   30.4518    9.8515 H   0  0  0  0  0  0  0  0  0  0  0  0
   -6.1978   28.9117    7.2116 H   0  0  0  0  0  0  0  0  0  0  0  0
   -3.1259   29.6039    8.5646 H   0  0  0  0  0  0  0  0  0  0  0  0
   -2.1518   29.5204    8.5143 H   0  0  0  0  0  0  0  0  0  0  0  0
   -0.5758   28.8681    7.6148 H   0  0  0  0  0  0  0  0  0  0  0  0
   -0.1640   28.3779    6.8740 H   0  0  0  0  0  0  0  0  0  0  0  0
   -0.7112   27.7200    5.7874 H   0  0  0  0  0  0  0  0  0  0  0  0
   -1.2729   27.3322    5.1268 H   0  0  0  0  0  0  0  0  0  0  0  0
   -1.1286   25.8384    2.7759 H   0  0  0  0  0  0  0  0  0  0  0  0
   -0.1934   25.9664    3.0398 H   0  0  0  0  0  0  0  0  0  0  0  0
   -0.6065   27.3994    5.3026 H   0  0  0  0  0  0  0  0  0  0  0  0
    0.6834   27.7612    5.9696 H   0  0  0  0  0  0  0  0  0  0  0  0
    2.7019   27.6638    5.9851 H   0  0  0  0  0  0  0  0  0  0  0  0
    3.8113   26.5466    4.3110 H   0  0  0  0  0  0  0  0  0  0  0  0
    2.7683   25.6615    2.8234 H   0  0  0  0  0  0  0  0  0  0  0  0
    0.5963   25.6952    2.6944 H   0  0  0  0  0  0  0  0  0  0  0  0
   -4.3041   25.6822    2.2622 H   0  0  0  0  0  0  0  0  0  0  0  0
   -1.4070   24.8358    1.1667 H   0  0  0  0  0  0  0  0  0  0  0  0
   -3.3600   25.6615    1.1018 H   0  0  0  0  0  0  0  0  0  0  0  0
   -1.1515   25.2793    3.0875 H   0  0  0  0  0  0  0  0  0  0  0  0
   -5.1971   26.1329    2.9001 H   0  0  0  0  0  0  0  0  0  0  0  0
   -5.7238   27.1101    4.4017 H   0  0  0  0  0  0  0  0  0  0  0  0
   -5.2457   27.5151    5.0825 H   0  0  0  0  0  0  0  0  0  0  0  0
   -5.7025   27.8971    5.6483 H   0  0  0  0  0  0  0  0  0  0  0  0
   -5.5573   28.7611    7.0273 H   0  0  0  0  0  0  0  0  0  0  0  0
  1  2  2  3
  2  3  1  0
  3  4  1  0
  4  5  1  0
  5  6  2  3
  6  7  1  0
  7  8  1  0
  8  9  1  0
  9 10  1  0
 10 11  1  0
 11 12  1  0
 12 13  1  0
 13 14  1  0
 14 15  1  0
 11 16  1  0
 16 17  1  0
 16 18  1  0
 18 19  1  0
 19 20  1  0
 20  7  1  0
 19 10  1  0
 15 13  1  0
  1 21  1  0
  1 22  1  0
  2 23  1  0
  3 24  1  0
  3 25  1  0
  4 26  1  0
  4 27  1  0
  5 28  1  0
  6 29  1  0
  7 30  1  6
  8 31  1  0
  8 32  1  0
  9 33  1  0
  9 34  1  0
 10 35  1  1
 11 36  1  6
 12 37  1  0
 12 38  1  0
 13 39  1  0
 14 40  1  0
 14 41  1  0
 15 42  1  0
 15 43  1  0
 16 44  1  6
 17 45  1  0
 17 46  1  0
 17 47  1  0
 18 48  1  0
 18 49  1  0
 19 50  1  1
 20 51  1  0
 20 52  1  0
M  END
