
     RDKit          2D

 29 31  0  0  0  0  0  0  0  0999 V2000
    1.3846   21.8062    0.9850 C   0  0  0  0  0  0  0  0  0  0  0  0
    1.5707   22.8809    2.0147 C   0  0  0  0  0  0  0  0  0  0  0  0
    0.5972   23.3642    3.0485 C   0  0  0  0  0  0  0  0  0  0  0  0
   -0.8028   22.8922    3.3079 C   0  0  0  0  0  0  0  0  0  0  0  0
   -2.2063   22.5737    3.7307 C   0  0  0  0  0  0  0  0  0  0  0  0
   -1.5750   21.8203    2.5976 C   0  0  0  0  0  0  0  0  0  0  0  0
   -2.9808   21.4394    2.9559 C   0  0  0  0  0  0  0  0  0  0  0  0
   -3.4128   20.3393    2.0322 C   0  0  0  0  0  0  0  0  0  0  0  0
   -2.2739   20.0403    1.1030 C   0  0  0  0  0  0  0  0  0  0  0  0
   -1.1380   20.9557    1.4524 C   0  0  0  0  0  0  0  0  0  0  0  0
    0.1791   20.9494    0.7347 C   0  0  0  0  0  0  0  0  0  0  0  0
    2.7898   22.1534    0.5916 H   0  0  0  0  0  0  0  0  0  0  0  0
    1.9812   21.0311   -0.1522 H   0  0  0  0  0  0  0  0  0  0  0  0
    2.4804   23.9142    2.6103 H   0  0  0  0  0  0  0  0  0  0  0  0
    2.9380   23.0089    1.4112 H   0  0  0  0  0  0  0  0  0  0  0  0
    0.1602   24.2289    4.1938 H   0  0  0  0  0  0  0  0  0  0  0  0
    1.7055   24.2989    3.4331 H   0  0  0  0  0  0  0  0  0  0  0  0
   -0.8265   23.9194    4.4009 H   0  0  0  0  0  0  0  0  0  0  0  0
   -2.3698   23.5563    4.8522 H   0  0  0  0  0  0  0  0  0  0  0  0
   -2.9220   22.2231    3.7483 H   0  0  0  0  0  0  0  0  0  0  0  0
   -3.0863   21.9548    3.5548 H   0  0  0  0  0  0  0  0  0  0  0  0
   -4.3567   21.2815    3.5326 H   0  0  0  0  0  0  0  0  0  0  0  0
   -4.6982   20.4114    2.8019 H   0  0  0  0  0  0  0  0  0  0  0  0
   -4.1135   19.2543    1.2694 H   0  0  0  0  0  0  0  0  0  0  0  0
   -3.2126   19.0179    0.5345 H   0  0  0  0  0  0  0  0  0  0  0  0
   -1.6115   19.3072   -0.0256 H   0  0  0  0  0  0  0  0  0  0  0  0
   -0.9467   19.9833    0.3265 H   0  0  0  0  0  0  0  0  0  0  0  0
    1.0217   20.3491   -0.3514 H   0  0  0  0  0  0  0  0  0  0  0  0
   -0.2860   19.8486   -0.1719 H   0  0  0  0  0  0  0  0  0  0  0  0
  1  2  1  0
  2  3  1  0
  3  4  1  0
  4  5  1  0
  5  6  1  0
  6  7  1  0
  7  8  1  0
  8  9  1  0
  9 10  1  0
 10 11  1  0
 11  1  1  0
  6  4  1  0
 10  6  1  0
  1 12  1  0
  1 13  1  0
  2 14  1  0
  2 15  1  0
  3 16  1  0
  3 17  1  0
  4 18  1  0
  5 19  1  0
  5 20  1  0
  7 21  1  0
  7 22  1  0
  8 23  1  0
  8 24  1  0
  9 25  1  0
  9 26  1  0
 10 27  1  0
 11 28  1  0
 11 29  1  0
M  END
