
     RDKit          2D

 34 38  0  0  0  0  0  0  0  0999 V2000
   -7.1500   31.3163   10.8322 C   0  0  0  0  0  0  0  0  0  0  0  0
   -7.5790   30.4113    9.7154 C   0  0  0  0  0  0  0  0  0  0  0  0
   -8.0079   29.5064    8.5987 N   0  0  0  0  0  0  0  0  0  0  0  0
   -7.3508   28.1695    8.4221 C   0  0  0  0  0  0  0  0  0  0  0  0
   -6.6938   26.8327    8.2455 O   0  0  0  0  0  0  0  0  0  0  0  0
   -5.4766   26.7039    7.3785 Al  0  0  0  0  0  3  0  0  0  0  0  0
   -4.8062   27.8168    6.6289 O   0  0  0  0  0  0  0  0  0  0  0  0
   -3.6313   27.2402    5.8961 C   0  0  0  0  0  0  0  0  0  0  0  0
   -3.5755   25.7709    6.1928 C   0  0  0  0  0  0  0  0  0  0  0  0
   -3.7740   24.3605    6.6633 C   0  0  0  0  0  0  0  0  0  0  0  0
   -2.8320   23.2816    6.2175 C   0  0  0  0  0  0  0  0  0  0  0  0
   -1.6916   23.6131    5.3013 C   0  0  0  0  0  0  0  0  0  0  0  0
   -1.4931   25.0235    4.8308 C   0  0  0  0  0  0  0  0  0  0  0  0
   -0.5511   23.9445    4.3851 C   0  0  0  0  0  0  0  0  0  0  0  0
   -2.4350   26.1024    5.2766 C   0  0  0  0  0  0  0  0  0  0  0  0
   -4.7159   25.4394    7.1090 C   0  0  0  0  0  0  0  0  0  0  0  0
   -6.7211   32.2212   11.9489 H   0  0  0  0  0  0  0  0  0  0  0  0
   -5.9499   30.4493   11.0736 H   0  0  0  0  0  0  0  0  0  0  0  0
   -8.3501   32.1831   10.5907 H   0  0  0  0  0  0  0  0  0  0  0  0
   -6.6490   29.3479   10.2199 H   0  0  0  0  0  0  0  0  0  0  0  0
   -8.5089   31.4747    9.2109 H   0  0  0  0  0  0  0  0  0  0  0  0
   -9.0939   29.9383    7.6585 H   0  0  0  0  0  0  0  0  0  0  0  0
   -8.3772   27.5464    9.3211 H   0  0  0  0  0  0  0  0  0  0  0  0
   -6.3245   28.7927    7.5231 H   0  0  0  0  0  0  0  0  0  0  0  0
   -2.4152   27.1371    5.0240 H   0  0  0  0  0  0  0  0  0  0  0  0
   -3.4328   28.6506    5.4256 H   0  0  0  0  0  0  0  0  0  0  0  0
   -3.4965   25.0179    6.3077 H   0  0  0  0  0  0  0  0  0  0  0  0
   -2.2113   21.9238    6.0725 H   0  0  0  0  0  0  0  0  0  0  0  0
   -3.7569   22.4785    7.0833 H   0  0  0  0  0  0  0  0  0  0  0  0
   -1.2624   22.1758    5.3156 H   0  0  0  0  0  0  0  0  0  0  0  0
   -0.7201   26.0292    4.0302 H   0  0  0  0  0  0  0  0  0  0  0  0
    0.6511   23.5130    3.5987 H   0  0  0  0  0  0  0  0  0  0  0  0
   -2.0914   27.4497    4.7137 H   0  0  0  0  0  0  0  0  0  0  0  0
   -5.5832   24.5520    7.9518 H   0  0  0  0  0  0  0  0  0  0  0  0
  1  2  1  0
  2  3  1  0
  3  4  1  0
  4  5  1  0
  5  6  1  0
  6  7  1  0
  7  8  1  0
  8  9  1  0
  9 10  1  0
 10 11  1  0
 11 12  1  0
 12 13  1  0
 13 14  1  0
 14 15  1  0
 10 16  1  0
 16  6  1  0
 15  9  1  0
 16  9  1  0
 14 12  1  0
 15 13  1  0
  1 17  1  0
  1 18  1  0
  1 19  1  0
  2 20  1  0
  2 21  1  0
  3 22  1  0
  4 23  1  0
  4 24  1  0
  8 25  1  0
  8 26  1  0
 10 27  1  0
 11 28  1  0
 11 29  1  0
 12 30  1  0
 13 31  1  0
 14 32  1  0
 15 33  1  0
 16 34  1  0
M  END
