
     RDKit          2D

104110  0  0  0  0  0  0  0  0999 V2000
   -6.7069   21.3880    4.0248 C   0  0  0  0  0  0  0  0  0  0  0  0
   -6.1085   22.6948    4.4540 C   0  0  0  0  0  0  0  0  0  0  0  0
   -6.9736   23.9152    4.5659 C   0  0  0  0  0  0  0  0  0  0  0  0
   -7.8387   25.1354    4.6778 N   0  0  0  0  0  0  0  0  0  0  0  0
   -5.7823   24.7204    4.9931 N   0  0  0  0  0  0  0  0  0  0  0  0
   -4.4375   24.0662    5.1099 C   0  0  0  0  0  0  0  0  0  0  0  0
   -3.6140   25.2403    5.5495 O   0  0  0  0  0  0  0  0  0  0  0  0
   -4.7941   22.6649    4.7108 C   0  0  0  0  0  0  0  0  0  0  0  0
   -3.3788   23.0043    5.0740 C   0  0  0  0  0  0  0  0  0  0  0  0
   -2.1875   23.8095    5.5011 C   0  0  0  0  0  0  0  0  0  0  0  0
   -0.9963   24.6149    5.9283 C   0  0  0  0  0  0  0  0  0  0  0  0
    0.1949   25.4201    6.3554 C   0  0  0  0  0  0  0  0  0  0  0  0
   -1.0601   26.2394    6.2953 C   0  0  0  0  0  0  0  0  0  0  0  0
   -1.9252   27.4598    6.4070 C   0  0  0  0  0  0  0  0  0  0  0  0
   -2.2685   28.8953    6.6738 C   0  0  0  0  0  0  0  0  0  0  0  0
   -3.7396   28.9037    6.3807 O   0  0  0  0  0  0  0  0  0  0  0  0
   -2.0379   30.3277    7.0549 C   0  0  0  0  0  0  0  0  0  0  0  0
   -1.2683   31.5387    7.4923 C   0  0  0  0  0  0  0  0  0  0  0  0
   -0.0771   32.3440    7.9195 C   0  0  0  0  0  0  0  0  0  0  0  0
    1.3545   32.6209    8.2713 C   0  0  0  0  0  0  0  0  0  0  0  0
    2.2812   33.7146    8.7128 C   0  0  0  0  0  0  0  0  0  0  0  0
    2.8085   32.3275    8.4943 C   0  0  0  0  0  0  0  0  0  0  0  0
    4.0636   31.5082    8.5545 C   0  0  0  0  0  0  0  0  0  0  0  0
    4.9286   30.2879    8.4427 C   0  0  0  0  0  0  0  0  0  0  0  0
    5.2719   28.8523    8.1760 C   0  0  0  0  0  0  0  0  0  0  0  0
    5.0413   27.4200    7.7949 C   0  0  0  0  0  0  0  0  0  0  0  0
    4.2718   26.2090    7.3575 C   0  0  0  0  0  0  0  0  0  0  0  0
    3.0805   25.4037    6.9303 C   0  0  0  0  0  0  0  0  0  0  0  0
    4.3356   24.5844    6.9905 C   0  0  0  0  0  0  0  0  0  0  0  0
    4.6790   23.1488    6.7238 C   0  0  0  0  0  0  0  0  0  0  0  0
    3.9094   21.9378    6.2864 C   0  0  0  0  0  0  0  0  0  0  0  0
    2.4778   21.6608    5.9345 C   0  0  0  0  0  0  0  0  0  0  0  0
    1.1838   21.0217    5.5256 C   0  0  0  0  0  0  0  0  0  0  0  0
    1.2228   22.4800    5.8743 C   0  0  0  0  0  0  0  0  0  0  0  0
    0.8794   23.9156    6.1410 C   0  0  0  0  0  0  0  0  0  0  0  0
   -0.5746   24.2091    5.9180 C   0  0  0  0  0  0  0  0  0  0  0  0
   -2.0286   24.5026    5.6950 C   0  0  0  0  0  0  0  0  0  0  0  0
   -3.4826   24.7961    5.4720 C   0  0  0  0  0  0  0  0  0  0  0  0
   -4.9366   25.0895    5.2490 C   0  0  0  0  0  0  0  0  0  0  0  0
    1.6489   25.1266    6.5784 C   0  0  0  0  0  0  0  0  0  0  0  0
    2.1344   23.0964    6.2012 P   0  0  0  0  0  0  0  0  0  0  0  0
    3.3257   23.9016    6.6284 F   0  0  0  0  0  0  0  0  0  0  0  0
    6.3946   30.0887    8.6902 C   0  0  0  0  0  0  0  0  0  0  0  0
    5.7786   31.4427    8.8831 O   0  0  0  0  0  0  0  0  0  0  0  0
   -5.8418   20.1678    3.9129 H   0  0  0  0  0  0  0  0  0  0  0  0
   -8.1704   21.3016    3.7074 H   0  0  0  0  0  0  0  0  0  0  0  0
   -4.6512   22.4256    4.6863 H   0  0  0  0  0  0  0  0  0  0  0  0
   -8.1647   23.1098    4.1388 H   0  0  0  0  0  0  0  0  0  0  0  0
   -9.3021   25.0489    4.3605 H   0  0  0  0  0  0  0  0  0  0  0  0
   -7.2402   26.4422    5.1071 H   0  0  0  0  0  0  0  0  0  0  0  0
   -5.9358   26.1799    5.3035 H   0  0  0  0  0  0  0  0  0  0  0  0
   -4.0930   26.6428    5.7813 H   0  0  0  0  0  0  0  0  0  0  0  0
   -4.6405   21.2054    4.4004 H   0  0  0  0  0  0  0  0  0  0  0  0
   -6.2439   22.4759    4.3758 H   0  0  0  0  0  0  0  0  0  0  0  0
   -2.7338   21.6626    4.8897 H   0  0  0  0  0  0  0  0  0  0  0  0
   -3.0524   25.0301    5.6120 H   0  0  0  0  0  0  0  0  0  0  0  0
   -1.4743   22.5000    5.3390 H   0  0  0  0  0  0  0  0  0  0  0  0
   -0.1315   23.3943    5.8175 H   0  0  0  0  0  0  0  0  0  0  0  0
   -1.8612   25.8355    6.0390 H   0  0  0  0  0  0  0  0  0  0  0  0
    0.0023   23.9807    5.9803 H   0  0  0  0  0  0  0  0  0  0  0  0
   -2.5322   26.3180    6.0184 H   0  0  0  0  0  0  0  0  0  0  0  0
   -1.6358   24.9206    5.8715 H   0  0  0  0  0  0  0  0  0  0  0  0
   -3.3792   27.7532    6.1840 H   0  0  0  0  0  0  0  0  0  0  0  0
   -2.9755   26.4830    5.9680 H   0  0  0  0  0  0  0  0  0  0  0  0
   -3.0417   31.4408    7.1137 H   0  0  0  0  0  0  0  0  0  0  0  0
   -3.4695   30.0507    6.7030 H   0  0  0  0  0  0  0  0  0  0  0  0
   -1.7837   32.9298    7.7141 H   0  0  0  0  0  0  0  0  0  0  0  0
   -2.6834   32.0046    7.3174 H   0  0  0  0  0  0  0  0  0  0  0  0
   -0.0254   33.8014    8.2705 H   0  0  0  0  0  0  0  0  0  0  0  0
   -1.2290   33.3047    7.9130 H   0  0  0  0  0  0  0  0  0  0  0  0
    0.7269   33.9701    8.4608 H   0  0  0  0  0  0  0  0  0  0  0  0
    1.3156   34.8601    8.7870 H   0  0  0  0  0  0  0  0  0  0  0  0
    3.5433   34.4105    9.1286 H   0  0  0  0  0  0  0  0  0  0  0  0
    3.8174   33.3463    8.9348 H   0  0  0  0  0  0  0  0  0  0  0  0
    5.3695   32.1244    8.9605 H   0  0  0  0  0  0  0  0  0  0  0  0
    4.4697   32.8941    8.9599 H   0  0  0  0  0  0  0  0  0  0  0  0
    6.5270   28.0330    8.2362 H   0  0  0  0  0  0  0  0  0  0  0  0
    6.6371   29.3383    8.5634 H   0  0  0  0  0  0  0  0  0  0  0  0
    6.0451   26.3068    7.7360 H   0  0  0  0  0  0  0  0  0  0  0  0
    6.5041   27.5199    8.1116 H   0  0  0  0  0  0  0  0  0  0  0  0
    5.1054   24.9680    7.2346 H   0  0  0  0  0  0  0  0  0  0  0  0
    5.6868   25.7431    7.5324 H   0  0  0  0  0  0  0  0  0  0  0  0
    4.5516   25.3952    7.2234 H   0  0  0  0  0  0  0  0  0  0  0  0
    5.8010   24.6590    7.3018 H   0  0  0  0  0  0  0  0  0  0  0  0
    5.2321   25.7030    7.4318 H   0  0  0  0  0  0  0  0  0  0  0  0
    5.8148   22.1690    6.7225 H   0  0  0  0  0  0  0  0  0  0  0  0
    6.0488   23.6229    7.1093 H   0  0  0  0  0  0  0  0  0  0  0  0
    3.8705   20.4794    5.9376 H   0  0  0  0  0  0  0  0  0  0  0  0
    5.2594   21.2950    6.4068 H   0  0  0  0  0  0  0  0  0  0  0  0
    1.6507   19.6157    5.2905 H   0  0  0  0  0  0  0  0  0  0  0  0
   -0.2722   20.8708    5.1983 H   0  0  0  0  0  0  0  0  0  0  0  0
   -0.2118   22.2155    5.5248 H   0  0  0  0  0  0  0  0  0  0  0  0
   -0.7888   22.7979    5.4572 H   0  0  0  0  0  0  0  0  0  0  0  0
   -0.7186   25.6495    6.3112 H   0  0  0  0  0  0  0  0  0  0  0  0
   -2.6044   23.1836    5.2723 H   0  0  0  0  0  0  0  0  0  0  0  0
   -2.1565   25.9637    6.0098 H   0  0  0  0  0  0  0  0  0  0  0  0
   -4.0582   23.4773    5.0485 H   0  0  0  0  0  0  0  0  0  0  0  0
   -3.6107   26.2569    5.7876 H   0  0  0  0  0  0  0  0  0  0  0  0
   -6.2916   25.7209    5.1248 H   0  0  0  0  0  0  0  0  0  0  0  0
   -4.8849   26.5470    5.6001 H   0  0  0  0  0  0  0  0  0  0  0  0
   -5.1673   23.6572    4.8679 H   0  0  0  0  0  0  0  0  0  0  0  0
    0.3969   24.4140    6.1608 H   0  0  0  0  0  0  0  0  0  0  0  0
    6.6941   28.6453    8.4128 H   0  0  0  0  0  0  0  0  0  0  0  0
    7.8184   30.3970    9.0478 H   0  0  0  0  0  0  0  0  0  0  0  0
  1  2  2  3
  2  3  1  0
  3  4  1  0
  3  5  1  0
  5  6  1  0
  6  7  1  0
  6  8  1  0
  8  9  1  0
  9 10  1  0
 10 11  1  0
 11 12  1  0
 12 13  1  0
 13 14  1  0
 14 15  1  0
 15 16  2  0
 15 17  1  0
 17 18  1  0
 18 19  1  0
 19 20  1  0
 20 21  1  0
 21 22  1  0
 22 23  1  0
 23 24  1  0
 24 25  1  0
 25 26  1  0
 26 27  1  0
 27 28  1  0
 28 29  1  0
 29 30  1  0
 30 31  1  0
 31 32  1  0
 32 33  1  0
 33 34  1  0
 34 35  1  0
 35 36  1  0
 36 37  1  0
 37 38  1  0
 38 39  1  0
 35 40  1  0
 35 41  1  0
 41 42  1  0
 24 43  1  0
 43 44  1  0
  9  6  1  0
 40 12  1  0
 22 20  1  0
 44 24  1  0
 40 28  1  0
 34 32  1  0
 41 32  1  0
  1 45  1  0
  1 46  1  0
  2 47  1  0
  3 48  1  0
  4 49  1  0
  4 50  1  0
  5 51  1  0
  7 52  1  0
  8 53  1  0
  8 54  1  0
  9 55  1  0
 10 56  1  0
 10 57  1  0
 11 58  1  0
 11 59  1  0
 12 60  1  0
 13 61  1  0
 13 62  1  0
 14 63  1  0
 14 64  1  0
 17 65  1  0
 17 66  1  0
 18 67  1  0
 18 68  1  0
 19 69  1  0
 19 70  1  0
 20 71  1  0
 21 72  1  0
 21 73  1  0
 22 74  1  0
 23 75  1  0
 23 76  1  0
 25 77  1  0
 25 78  1  0
 26 79  1  0
 26 80  1  0
 27 81  1  0
 27 82  1  0
 28 83  1  0
 29 84  1  0
 29 85  1  0
 30 86  1  0
 30 87  1  0
 31 88  1  0
 31 89  1  0
 33 90  1  0
 33 91  1  0
 34 92  1  0
 36 93  1  0
 36 94  1  0
 37 95  1  0
 37 96  1  0
 38 97  1  0
 38 98  1  0
 39 99  1  0
 39100  1  0
 39101  1  0
 40102  1  0
 43103  1  0
 43104  1  0
M  END
