
     RDKit          2D

 41 45  0  0  0  0  0  0  0  0999 V2000
   21.5286  -18.0511  -14.9791 O   0  0  0  0  0  0  0  0  0  0  0  0
   20.4133  -18.9451  -14.5242 C   0  0  0  0  0  0  0  0  0  0  0  0
   19.2980  -19.8391  -14.0693 C   0  0  0  0  0  0  0  0  0  0  0  0
   18.1827  -20.7331  -13.6144 C   0  0  0  0  0  0  0  0  0  0  0  0
   18.4112  -20.7009  -12.1322 C   0  0  0  0  0  0  0  0  0  0  0  0
   17.5098  -21.4759  -11.2174 C   0  0  0  0  0  0  0  0  0  0  0  0
   17.7382  -21.4437   -9.7353 C   0  0  0  0  0  0  0  0  0  0  0  0
   16.8368  -22.2187   -8.8205 C   0  0  0  0  0  0  0  0  0  0  0  0
   16.4483  -22.6476   -7.4366 C   0  0  0  0  0  0  0  0  0  0  0  0
   16.0598  -23.0765   -6.0527 C   0  0  0  0  0  0  0  0  0  0  0  0
   14.9299  -23.8836   -6.6201 C   0  0  0  0  0  0  0  0  0  0  0  0
   15.3185  -23.4547   -8.0040 C   0  0  0  0  0  0  0  0  0  0  0  0
   15.7070  -23.0259   -9.3878 C   0  0  0  0  0  0  0  0  0  0  0  0
   15.4785  -23.0581  -10.8700 C   0  0  0  0  0  0  0  0  0  0  0  0
   15.2501  -23.0902  -12.3521 N   0  0  0  0  0  0  0  0  0  0  0  0
   16.3799  -22.2831  -11.7848 C   0  0  0  0  0  0  0  0  0  0  0  0
   17.5670  -21.0757  -14.9386 C   0  0  0  0  0  0  0  0  0  0  0  0
   16.9881  -21.6383  -13.6742 C   0  0  0  0  0  0  0  0  0  0  0  0
   21.7171  -17.7717  -16.4408 H   0  0  0  0  0  0  0  0  0  0  0  0
   19.9834  -19.1338  -15.9489 H   0  0  0  0  0  0  0  0  0  0  0  0
   20.8431  -18.7564  -13.0995 H   0  0  0  0  0  0  0  0  0  0  0  0
   19.7274  -19.6497  -12.6446 H   0  0  0  0  0  0  0  0  0  0  0  0
   19.0369  -19.9101  -15.3919 H   0  0  0  0  0  0  0  0  0  0  0  0
   19.5411  -19.8938  -11.5649 H   0  0  0  0  0  0  0  0  0  0  0  0
   18.4742  -21.0004   -8.5058 H   0  0  0  0  0  0  0  0  0  0  0  0
   18.8535  -20.5498  -10.1902 H   0  0  0  0  0  0  0  0  0  0  0  0
   17.7389  -21.6311   -7.7760 H   0  0  0  0  0  0  0  0  0  0  0  0
   17.5782  -21.8405   -6.8693 H   0  0  0  0  0  0  0  0  0  0  0  0
   15.6713  -23.5054   -4.6689 H   0  0  0  0  0  0  0  0  0  0  0  0
   17.1896  -22.2694   -5.4854 H   0  0  0  0  0  0  0  0  0  0  0  0
   13.8000  -24.6908   -7.1875 H   0  0  0  0  0  0  0  0  0  0  0  0
   14.5414  -24.3125   -5.2362 H   0  0  0  0  0  0  0  0  0  0  0  0
   14.1886  -24.2619   -8.5714 H   0  0  0  0  0  0  0  0  0  0  0  0
   14.5150  -23.9166   -9.5777 H   0  0  0  0  0  0  0  0  0  0  0  0
   14.3058  -23.9715  -10.6695 H   0  0  0  0  0  0  0  0  0  0  0  0
   14.4658  -23.5748  -13.5354 H   0  0  0  0  0  0  0  0  0  0  0  0
   16.4411  -22.1527  -12.6587 H   0  0  0  0  0  0  0  0  0  0  0  0
   18.2861  -20.4366  -15.8856 H   0  0  0  0  0  0  0  0  0  0  0  0
   16.6381  -21.6875  -15.9450 H   0  0  0  0  0  0  0  0  0  0  0  0
   15.8582  -22.4454  -14.2416 H   0  0  0  0  0  0  0  0  0  0  0  0
   16.7402  -21.8956  -12.9616 H   0  0  0  0  0  0  0  0  0  0  0  0
  1  2  1  0
  2  3  1  0
  3  4  1  0
  4  5  1  0
  5  6  2  3
  6  7  1  0
  7  8  1  0
  8  9  1  0
  9 10  1  0
 10 11  1  0
 11 12  1  0
 12 13  1  0
 13 14  1  0
 14 15  1  0
 15 16  1  0
  4 17  1  0
 17 18  1  0
 18  4  1  0
 16  6  1  0
 13  8  1  0
 16 14  1  0
 12  9  1  0
  1 19  1  0
  2 20  1  0
  2 21  1  0
  3 22  1  0
  3 23  1  0
  5 24  1  0
  7 25  1  0
  7 26  1  0
  8 27  1  6
  9 28  1  6
 10 29  1  0
 10 30  1  0
 11 31  1  0
 11 32  1  0
 12 33  1  6
 13 34  1  6
 14 35  1  6
 15 36  1  0
 16 37  1  6
 17 38  1  0
 17 39  1  0
 18 40  1  0
 18 41  1  0
M  END
