
     RDKit          2D

 98103  0  0  0  0  0  0  0  0999 V2000
   12.7377  -16.8612  -17.5310 C   0  0  0  0  0  0  0  0  0  0  0  0
   13.9815  -17.2362  -16.7811 C   0  0  0  0  0  0  0  0  0  0  0  0
   13.9159  -18.2540  -15.6812 C   0  0  0  0  0  0  0  0  0  0  0  0
   13.8505  -19.2718  -14.5813 C   0  0  0  0  0  0  0  0  0  0  0  0
   13.7849  -20.2896  -13.4814 C   0  0  0  0  0  0  0  0  0  0  0  0
   13.7193  -21.3074  -12.3815 C   0  0  0  0  0  0  0  0  0  0  0  0
   13.6539  -22.3251  -11.2816 C   0  0  0  0  0  0  0  0  0  0  0  0
   13.8962  -23.2885  -10.1577 C   0  0  0  0  0  0  0  0  0  0  0  0
   12.5869  -23.9313   -9.8076 C   0  0  0  0  0  0  0  0  0  0  0  0
   13.4003  -24.6639   -8.7821 C   0  0  0  0  0  0  0  0  0  0  0  0
   14.2138  -25.3964   -7.7566 C   0  0  0  0  0  0  0  0  0  0  0  0
   15.5673  -24.8113   -8.0313 C   0  0  0  0  0  0  0  0  0  0  0  0
   14.5570  -26.3322   -6.6357 N   0  0  0  0  0  0  0  0  0  0  0  0
   13.1426  -26.2359   -7.1257 C   0  0  0  0  0  0  0  0  0  0  0  0
   12.4832  -27.2286   -6.2148 F   0  0  0  0  0  0  0  0  0  0  0  0
   11.5353  -23.3651  -10.7152 C   0  0  0  0  0  0  0  0  0  0  0  0
   10.2915  -22.9901  -11.4650 F   0  0  0  0  0  0  0  0  0  0  0  0
   10.6158  -24.2794   -9.9610 C   0  0  0  0  0  0  0  0  0  0  0  0
    9.4607  -23.8015  -10.7900 F   0  0  0  0  0  0  0  0  0  0  0  0
    9.6965  -25.1937   -9.2068 C   0  0  0  0  0  0  0  0  0  0  0  0
    8.7770  -26.1079   -8.4526 F   0  0  0  0  0  0  0  0  0  0  0  0
   12.1947  -22.3724  -11.6261 C   0  0  0  0  0  0  0  0  0  0  0  0
   10.8131  -22.2050  -12.1855 O   0  0  0  0  0  0  0  0  0  0  0  0
   12.5653  -21.3448  -12.6540 O   0  0  0  0  0  0  0  0  0  0  0  0
   15.2589  -20.1348  -13.2504 C   0  0  0  0  0  0  0  0  0  0  0  0
   15.5794  -19.1057  -14.2935 C   0  0  0  0  0  0  0  0  0  0  0  0
   16.9869  -18.6121  -14.4527 C   0  0  0  0  0  0  0  0  0  0  0  0
   18.4557  -18.3173  -14.3770 C   0  0  0  0  0  0  0  0  0  0  0  0
   19.3343  -17.3870  -15.1598 O   0  0  0  0  0  0  0  0  0  0  0  0
   20.8001  -17.3037  -14.8526 C   0  0  0  0  0  0  0  0  0  0  0  0
   22.2351  -16.8744  -14.9338 C   0  0  0  0  0  0  0  0  0  0  0  0
   23.6700  -16.4451  -15.0149 N   0  0  0  0  0  0  0  0  0  0  0  0
   24.6215  -17.1753  -15.9158 C   0  0  0  0  0  0  0  0  0  0  0  0
   25.5729  -17.9055  -16.8167 C   0  0  0  0  0  0  0  0  0  0  0  0
   21.3874  -18.1506  -13.7627 C   0  0  0  0  0  0  0  0  0  0  0  0
   20.5088  -19.0809  -12.9800 C   0  0  0  0  0  0  0  0  0  0  0  0
   20.0886  -20.1059  -11.9686 C   0  0  0  0  0  0  0  0  0  0  0  0
   18.6743  -20.0098  -12.4589 C   0  0  0  0  0  0  0  0  0  0  0  0
   19.6685  -21.1309  -10.9573 C   0  0  0  0  0  0  0  0  0  0  0  0
   20.6833  -21.7268  -10.0272 C   0  0  0  0  0  0  0  0  0  0  0  0
   19.0430  -19.1642  -13.2872 C   0  0  0  0  0  0  0  0  0  0  0  0
   19.4856  -20.0677  -12.1746 C   0  0  0  0  0  0  0  0  0  0  0  0
   17.9371  -19.9826  -12.6893 C   0  0  0  0  0  0  0  0  0  0  0  0
   16.6664  -19.6414  -13.4096 C   0  0  0  0  0  0  0  0  0  0  0  0
   12.8032  -15.8434  -18.6309 H   0  0  0  0  0  0  0  0  0  0  0  0
   11.4283  -17.5039  -17.1810 H   0  0  0  0  0  0  0  0  0  0  0  0
   15.2907  -16.5935  -17.1312 H   0  0  0  0  0  0  0  0  0  0  0  0
   15.3901  -18.1001  -15.4510 H   0  0  0  0  0  0  0  0  0  0  0  0
   12.4417  -18.4080  -15.9115 H   0  0  0  0  0  0  0  0  0  0  0  0
   15.2965  -18.8754  -14.6233 H   0  0  0  0  0  0  0  0  0  0  0  0
   12.3764  -19.4265  -14.8123 H   0  0  0  0  0  0  0  0  0  0  0  0
   12.3299  -20.3191  -13.8447 H   0  0  0  0  0  0  0  0  0  0  0  0
   12.3055  -21.2132  -12.8735 H   0  0  0  0  0  0  0  0  0  0  0  0
   15.1739  -21.2758  -12.0164 H   0  0  0  0  0  0  0  0  0  0  0  0
   15.1267  -22.0650  -11.1670 H   0  0  0  0  0  0  0  0  0  0  0  0
   15.3184  -22.8271  -10.2780 H   0  0  0  0  0  0  0  0  0  0  0  0
   14.7522  -23.9954   -9.1488 H   0  0  0  0  0  0  0  0  0  0  0  0
   11.5704  -24.8008   -9.1290 H   0  0  0  0  0  0  0  0  0  0  0  0
   12.0791  -25.2917   -8.4501 H   0  0  0  0  0  0  0  0  0  0  0  0
   14.6315  -23.9413   -9.2425 H   0  0  0  0  0  0  0  0  0  0  0  0
   16.9209  -24.2263   -8.3060 H   0  0  0  0  0  0  0  0  0  0  0  0
   15.1264  -23.5094   -7.4309 H   0  0  0  0  0  0  0  0  0  0  0  0
   16.3226  -25.9331   -8.6803 H   0  0  0  0  0  0  0  0  0  0  0  0
   15.5719  -26.9280   -5.7055 H   0  0  0  0  0  0  0  0  0  0  0  0
   11.8590  -25.9116   -7.8307 H   0  0  0  0  0  0  0  0  0  0  0  0
   11.6504  -24.8651   -9.0462 H   0  0  0  0  0  0  0  0  0  0  0  0
    8.5421  -24.7192  -10.0390 H   0  0  0  0  0  0  0  0  0  0  0  0
   10.8507  -25.6681   -8.3747 H   0  0  0  0  0  0  0  0  0  0  0  0
   10.5707  -21.2415  -13.3095 H   0  0  0  0  0  0  0  0  0  0  0  0
   11.3953  -20.8876  -13.4740 H   0  0  0  0  0  0  0  0  0  0  0  0
   15.6272  -21.0629  -12.1310 H   0  0  0  0  0  0  0  0  0  0  0  0
   14.4923  -18.5700  -15.1775 H   0  0  0  0  0  0  0  0  0  0  0  0
   16.6939  -17.6621  -15.5758 H   0  0  0  0  0  0  0  0  0  0  0  0
   17.7302  -17.5362  -15.4322 H   0  0  0  0  0  0  0  0  0  0  0  0
   20.7112  -16.3076  -15.9706 H   0  0  0  0  0  0  0  0  0  0  0  0
   21.8925  -15.9415  -16.0572 H   0  0  0  0  0  0  0  0  0  0  0  0
   22.7500  -17.7480  -13.8285 H   0  0  0  0  0  0  0  0  0  0  0  0
   24.1537  -15.2857  -14.1951 H   0  0  0  0  0  0  0  0  0  0  0  0
   23.5154  -18.0965  -16.3374 H   0  0  0  0  0  0  0  0  0  0  0  0
   25.7277  -16.2541  -15.4943 H   0  0  0  0  0  0  0  0  0  0  0  0
   26.5243  -18.6357  -17.7176 H   0  0  0  0  0  0  0  0  0  0  0  0
   26.5230  -16.7465  -16.7529 H   0  0  0  0  0  0  0  0  0  0  0  0
   24.6229  -19.0645  -16.8806 H   0  0  0  0  0  0  0  0  0  0  0  0
   22.4022  -18.7463  -12.8325 H   0  0  0  0  0  0  0  0  0  0  0  0
   22.7084  -17.5219  -14.0940 H   0  0  0  0  0  0  0  0  0  0  0  0
   21.8287  -19.3535  -12.3217 H   0  0  0  0  0  0  0  0  0  0  0  0
   21.5030  -20.2019  -11.4784 H   0  0  0  0  0  0  0  0  0  0  0  0
   17.2003  -20.1647  -12.6898 H   0  0  0  0  0  0  0  0  0  0  0  0
   17.9244  -20.9810  -11.5962 H   0  0  0  0  0  0  0  0  0  0  0  0
   18.7398  -18.9922  -13.5589 H   0  0  0  0  0  0  0  0  0  0  0  0
   18.2860  -21.6708  -10.7399 H   0  0  0  0  0  0  0  0  0  0  0  0
   20.2632  -22.7518   -9.0158 H   0  0  0  0  0  0  0  0  0  0  0  0
   22.1184  -21.2977  -10.1086 H   0  0  0  0  0  0  0  0  0  0  0  0
   19.5744  -21.0638  -11.0565 H   0  0  0  0  0  0  0  0  0  0  0  0
   18.1425  -20.6677  -11.8810 H   0  0  0  0  0  0  0  0  0  0  0  0
   20.8931  -19.5743  -12.3337 H   0  0  0  0  0  0  0  0  0  0  0  0
   18.7504  -20.7151  -11.6636 H   0  0  0  0  0  0  0  0  0  0  0  0
   17.0586  -20.9129  -11.9065 H   0  0  0  0  0  0  0  0  0  0  0  0
  1  2  2  3
  2  3  1  0
  3  4  1  0
  4  5  1  0
  5  6  1  0
  6  7  1  0
  7  8  1  0
  8  9  1  0
  9 10  1  0
 10 11  1  0
 11 12  1  0
 11 13  1  0
 13 14  1  0
 14 15  1  0
  9 16  1  0
 16 17  1  0
 16 18  1  0
 18 19  1  0
 18 20  1  0
 20 21  1  0
 16 22  1  0
 22 23  1  0
 22 24  1  0
  5 25  1  0
 25 26  1  0
 26 27  1  0
 27 28  1  0
 28 29  1  0
 29 30  1  0
 30 31  1  0
 31 32  1  0
 32 33  1  0
 33 34  1  0
 30 35  1  0
 35 36  1  0
 36 37  1  0
 37 38  1  0
 37 39  1  0
 39 40  2  3
 36 41  1  0
 41 42  1  0
 41 43  1  0
 43 44  1  0
 22  7  1  0
 44 25  1  0
 14 11  1  0
 44 26  1  0
 44 27  1  0
 41 28  1  0
  1 45  1  0
  1 46  1  0
  2 47  1  0
  3 48  1  0
  3 49  1  0
  4 50  1  0
  4 51  1  0
  5 52  1  0
  6 53  1  0
  6 54  1  0
  7 55  1  0
  8 56  1  0
  8 57  1  0
  9 58  1  0
 10 59  1  0
 10 60  1  0
 12 61  1  0
 12 62  1  0
 12 63  1  0
 13 64  1  0
 14 65  1  0
 18 66  1  0
 20 67  1  0
 20 68  1  0
 23 69  1  0
 24 70  1  0
 25 71  1  0
 26 72  1  0
 27 73  1  0
 28 74  1  0
 30 75  1  0
 31 76  1  0
 31 77  1  0
 32 78  1  0
 33 79  1  0
 33 80  1  0
 34 81  1  0
 34 82  1  0
 34 83  1  0
 35 84  1  0
 35 85  1  0
 36 86  1  0
 37 87  1  0
 38 88  1  0
 38 89  1  0
 38 90  1  0
 39 91  1  0
 40 92  1  0
 40 93  1  0
 42 94  1  0
 42 95  1  0
 42 96  1  0
 43 97  1  0
 43 98  1  0
M  END
