
     RDKit          2D

 23 27  0  0  0  0  0  0  0  0999 V2000
   -4.9319   27.6563    3.4389 C   0  0  0  0  0  0  0  0  0  0  0  0
   -3.7000   26.8679    3.1063 C   0  0  0  0  0  0  0  0  0  0  0  0
   -3.3507   25.6487    3.9075 C   0  0  0  0  0  0  0  0  0  0  0  0
   -2.1298   25.4421    3.0608 C   0  0  0  0  0  0  0  0  0  0  0  0
   -1.7805   24.2230    3.8619 C   0  0  0  0  0  0  0  0  0  0  0  0
   -0.8676   23.0640    4.1324 C   0  0  0  0  0  0  0  0  0  0  0  0
   -2.0885   23.2705    4.9790 C   0  0  0  0  0  0  0  0  0  0  0  0
   -3.0014   24.4296    4.7085 C   0  0  0  0  0  0  0  0  0  0  0  0
   -4.2334   25.2180    5.0412 C   0  0  0  0  0  0  0  0  0  0  0  0
   -5.4654   26.0065    5.3738 C   0  0  0  0  0  0  0  0  0  0  0  0
   -5.8146   27.2256    4.5727 C   0  0  0  0  0  0  0  0  0  0  0  0
   -5.2812   28.8754    2.6379 H   0  0  0  0  0  0  0  0  0  0  0  0
   -2.9351   27.4365    1.9481 H   0  0  0  0  0  0  0  0  0  0  0  0
   -0.9089   25.2356    2.2142 H   0  0  0  0  0  0  0  0  0  0  0  0
   -2.3276   26.6270    2.1625 H   0  0  0  0  0  0  0  0  0  0  0  0
    0.1602   23.2869    3.0628 H   0  0  0  0  0  0  0  0  0  0  0  0
   -0.3116   21.8275    4.7743 H   0  0  0  0  0  0  0  0  0  0  0  0
   -2.3965   22.3180    6.0961 H   0  0  0  0  0  0  0  0  0  0  0  0
   -4.5414   24.2655    6.1582 H   0  0  0  0  0  0  0  0  0  0  0  0
   -5.5547   24.9315    6.4161 H   0  0  0  0  0  0  0  0  0  0  0  0
   -6.7283   26.4216    6.0684 H   0  0  0  0  0  0  0  0  0  0  0  0
   -6.9563   27.2173    5.5455 H   0  0  0  0  0  0  0  0  0  0  0  0
   -6.5603   28.4418    4.1094 H   0  0  0  0  0  0  0  0  0  0  0  0
  1  2  2  0
  2  3  1  0
  3  4  1  0
  4  5  1  0
  5  6  1  0
  6  7  1  0
  7  8  1  0
  8  9  1  0
  9 10  1  0
 10 11  1  0
 11  1  1  0
  8  3  1  0
  9  3  1  0
  7  5  1  0
  8  5  1  0
  1 12  1  0
  2 13  1  0
  4 14  1  0
  4 15  1  0
  6 16  1  0
  6 17  1  0
  7 18  1  0
  9 19  1  0
 10 20  1  0
 10 21  1  0
 11 22  1  0
 11 23  1  0
M  END
