
     RDKit          2D

 50 52  0  0  0  0  0  0  0  0999 V2000
   -4.6604   26.4721    2.6124 C   0  0  0  0  0  0  0  0  0  0  0  0
   -4.5017   27.5349    3.6590 C   0  0  0  0  0  0  0  0  0  0  0  0
   -3.8276   27.2120    4.9596 C   0  0  0  0  0  0  0  0  0  0  0  0
   -3.1535   26.8892    6.2601 N   0  0  0  0  0  0  0  0  0  0  0  0
   -2.9948   27.9519    7.3067 C   0  0  0  0  0  0  0  0  0  0  0  0
   -2.3206   27.6291    8.6072 C   0  0  0  0  0  0  0  0  0  0  0  0
   -1.8053   26.2435    8.8611 C   0  0  0  0  0  0  0  0  0  0  0  0
   -1.2899   24.8579    9.1150 B   0  0  0  0  0  0  0  0  0  0  0  0
   -1.4486   23.7952    8.0685 N   0  0  0  0  0  2  0  0  0  0  0  0
   -2.1228   24.1180    6.7679 C   0  0  0  0  0  0  0  0  0  0  0  0
   -1.9150   22.7050    6.3094 O   0  0  0  0  0  1  0  0  0  0  0  0
   -2.7970   24.4409    5.4675 N   0  0  0  0  0  0  0  0  0  0  0  0
   -1.9874   24.9352    4.3054 C   0  0  0  0  0  0  0  0  0  0  0  0
   -1.1779   25.4296    3.1435 C   0  0  0  0  0  0  0  0  0  0  0  0
   -2.2643   25.6015    2.1235 C   0  0  0  0  0  0  0  0  0  0  0  0
   -0.8433   25.9240    1.7674 C   0  0  0  0  0  0  0  0  0  0  0  0
    0.6405   26.0954    1.9058 C   0  0  0  0  0  0  0  0  0  0  0  0
    0.6264   27.1095    0.8007 C   0  0  0  0  0  0  0  0  0  0  0  0
    2.1101   27.2810    0.9392 B   0  0  0  0  0  0  0  0  0  0  0  0
    3.4021   26.9224    1.6116 C   0  0  0  0  0  0  0  0  0  0  0  0
    2.1242   26.2668    2.0443 C   0  0  0  0  0  0  0  0  0  0  0  0
   -3.5101   29.3375    7.0527 C   0  0  0  0  0  0  0  0  0  0  0  0
   -4.0256   30.7232    6.7988 S   0  0  0  0  0  0  0  0  0  0  0  0
   -5.3345   26.7949    1.3119 H   0  0  0  0  0  0  0  0  0  0  0  0
   -4.1450   25.0865    2.8664 H   0  0  0  0  0  0  0  0  0  0  0  0
   -5.0170   28.9205    3.4051 H   0  0  0  0  0  0  0  0  0  0  0  0
   -4.0675   28.3780    5.2026 H   0  0  0  0  0  0  0  0  0  0  0  0
   -3.6119   25.8013    4.4976 H   0  0  0  0  0  0  0  0  0  0  0  0
   -2.6381   25.5035    6.5140 H   0  0  0  0  0  0  0  0  0  0  0  0
   -2.1619   28.6918    9.6538 H   0  0  0  0  0  0  0  0  0  0  0  0
   -3.0937   25.8892    9.5427 H   0  0  0  0  0  0  0  0  0  0  0  0
   -0.5169   26.5978    8.1796 H   0  0  0  0  0  0  0  0  0  0  0  0
   -0.6158   24.5350   10.4156 H   0  0  0  0  0  0  0  0  0  0  0  0
   -2.3306   25.5310    7.2265 H   0  0  0  0  0  0  0  0  0  0  0  0
   -4.2807   24.2695    5.3290 H   0  0  0  0  0  0  0  0  0  0  0  0
   -3.1889   24.9572    3.6902 H   0  0  0  0  0  0  0  0  0  0  0  0
   -0.7418   24.8500    5.1369 H   0  0  0  0  0  0  0  0  0  0  0  0
   -0.0200   25.3742    3.8354 H   0  0  0  0  0  0  0  0  0  0  0  0
   -2.9385   25.9244    0.8231 H   0  0  0  0  0  0  0  0  0  0  0  0
   -3.4225   25.2408    2.7159 H   0  0  0  0  0  0  0  0  0  0  0  0
   -1.1050   26.2164    0.7468 H   0  0  0  0  0  0  0  0  0  0  0  0
    0.8157   25.2083    2.9082 H   0  0  0  0  0  0  0  0  0  0  0  0
    0.6124   28.1237   -0.3044 H   0  0  0  0  0  0  0  0  0  0  0  0
   -0.4485   27.0756    0.6023 H   0  0  0  0  0  0  0  0  0  0  0  0
    4.3451   27.8095    0.8540 H   0  0  0  0  0  0  0  0  0  0  0  0
    4.3666   26.2557    2.5472 H   0  0  0  0  0  0  0  0  0  0  0  0
    2.5217   25.3316    3.1476 H   0  0  0  0  0  0  0  0  0  0  0  0
   -4.6216   29.1688    7.5135 H   0  0  0  0  0  0  0  0  0  0  0  0
   -2.1908   29.7176    6.4484 H   0  0  0  0  0  0  0  0  0  0  0  0
   -3.1366   31.7487    6.1601 H   0  0  0  0  0  0  0  0  0  0  0  0
  1  2  2  3
  2  3  1  0
  3  4  1  0
  4  5  1  0
  5  6  2  3
  6  7  1  0
  7  8  1  0
  8  9  1  0
  9 10  1  0
 10 11  1  0
 10 12  1  0
 12 13  1  0
 13 14  1  0
 14 15  1  0
 15 16  1  0
 16 17  1  0
 17 18  1  0
 18 19  1  0
 19 20  1  0
 20 21  1  0
  5 22  1  0
 22 23  1  0
 16 14  1  0
 21 17  1  0
 21 19  1  0
  1 24  1  0
  1 25  1  0
  2 26  1  0
  3 27  1  0
  3 28  1  0
  4 29  1  0
  6 30  1  0
  7 31  1  0
  7 32  1  0
  8 33  1  0
 10 34  1  1
 12 35  1  0
 13 36  1  0
 13 37  1  0
 14 38  1  1
 15 39  1  0
 15 40  1  0
 16 41  1  6
 17 42  1  1
 18 43  1  0
 18 44  1  0
 20 45  1  0
 20 46  1  0
 21 47  1  1
 22 48  1  0
 22 49  1  0
 23 50  1  0
M  RAD  2   9   2  11   2
M  END
