
     RDKit          2D

 55 56  0  0  0  0  0  0  0  0999 V2000
   15.6080  -27.5397   -7.6339 C   0  0  0  0  0  0  0  0  0  0  0  0
   15.9232  -26.3066   -8.4278 C   0  0  0  0  0  0  0  0  0  0  0  0
   16.6525  -25.3663   -9.3410 C   0  0  0  0  0  0  0  0  0  0  0  0
   16.0800  -24.0114   -9.6350 C   0  0  0  0  0  0  0  0  0  0  0  0
   17.3343  -23.9478  -10.4552 C   0  0  0  0  0  0  0  0  0  0  0  0
   18.3898  -23.4136  -11.3775 C   0  0  0  0  0  0  0  0  0  0  0  0
   17.1974  -22.5707  -11.0341 C   0  0  0  0  0  0  0  0  0  0  0  0
   17.5126  -21.3378  -11.8280 C   0  0  0  0  0  0  0  0  0  0  0  0
   17.8278  -20.1047  -12.6219 C   0  0  0  0  0  0  0  0  0  0  0  0
   18.1430  -18.8717  -13.4158 C   0  0  0  0  0  0  0  0  0  0  0  0
   18.4581  -17.6387  -14.2097 O   0  0  0  0  0  0  0  0  0  0  0  0
   16.8771  -18.2329  -12.9264 O   0  0  0  0  0  0  0  0  0  0  0  0
   15.8955  -22.1562  -10.4149 C   0  0  0  0  0  0  0  0  0  0  0  0
   14.5937  -21.7416   -9.7957 C   0  0  0  0  0  0  0  0  0  0  0  0
   13.2919  -21.3269   -9.1766 N   0  0  0  0  0  0  0  0  0  0  0  0
   14.5893  -20.4996  -10.6368 O   0  0  0  0  0  0  0  0  0  0  0  0
   14.7782  -23.5968   -9.0158 C   0  0  0  0  0  0  0  0  0  0  0  0
   14.0489  -24.5371   -8.1027 C   0  0  0  0  0  0  0  0  0  0  0  0
   14.6214  -25.8920   -7.8086 N   0  0  0  0  0  0  0  0  0  0  0  0
   13.8921  -26.8324   -6.8954 C   0  0  0  0  0  0  0  0  0  0  0  0
   13.1628  -27.7727   -5.9823 C   0  0  0  0  0  0  0  0  0  0  0  0
   12.4334  -28.7130   -5.0690 N   0  0  0  0  0  0  0  0  0  0  0  0
   15.2927  -28.7727   -6.8400 H   0  0  0  0  0  0  0  0  0  0  0  0
   14.5532  -27.2779   -7.0907 H   0  0  0  0  0  0  0  0  0  0  0  0
   16.8715  -28.1802   -8.1271 H   0  0  0  0  0  0  0  0  0  0  0  0
   17.1156  -27.1495   -8.7712 H   0  0  0  0  0  0  0  0  0  0  0  0
   17.5916  -26.5357   -9.3673 H   0  0  0  0  0  0  0  0  0  0  0  0
   17.2590  -25.1676   -9.8187 H   0  0  0  0  0  0  0  0  0  0  0  0
   15.7181  -22.8942   -9.9467 H   0  0  0  0  0  0  0  0  0  0  0  0
   17.7122  -24.6428  -10.3574 H   0  0  0  0  0  0  0  0  0  0  0  0
   19.3288  -24.5829  -11.4038 H   0  0  0  0  0  0  0  0  0  0  0  0
   19.2455  -22.6048  -12.3068 H   0  0  0  0  0  0  0  0  0  0  0  0
   16.2956  -20.5526  -11.4373 H   0  0  0  0  0  0  0  0  0  0  0  0
   18.8064  -21.8222  -12.4122 H   0  0  0  0  0  0  0  0  0  0  0  0
   16.5613  -19.4664  -12.1335 H   0  0  0  0  0  0  0  0  0  0  0  0
   19.0943  -20.7430  -13.1103 H   0  0  0  0  0  0  0  0  0  0  0  0
   19.4088  -19.5104  -13.9052 H   0  0  0  0  0  0  0  0  0  0  0  0
   19.7124  -17.5750  -15.0299 H   0  0  0  0  0  0  0  0  0  0  0  0
   15.9581  -18.9912  -12.0151 H   0  0  0  0  0  0  0  0  0  0  0  0
   15.8262  -20.7908  -11.0320 H   0  0  0  0  0  0  0  0  0  0  0  0
   15.4932  -23.3412   -9.5880 H   0  0  0  0  0  0  0  0  0  0  0  0
   14.2831  -22.8464   -8.8299 H   0  0  0  0  0  0  0  0  0  0  0  0
   12.7194  -19.9720   -9.4706 H   0  0  0  0  0  0  0  0  0  0  0  0
   12.5626  -22.2673   -8.2634 H   0  0  0  0  0  0  0  0  0  0  0  0
   13.4597  -19.5195  -10.5211 H   0  0  0  0  0  0  0  0  0  0  0  0
   15.0934  -22.3638   -9.8098 H   0  0  0  0  0  0  0  0  0  0  0  0
   13.5858  -22.7540   -8.6724 H   0  0  0  0  0  0  0  0  0  0  0  0
   13.1098  -23.3678   -8.0763 H   0  0  0  0  0  0  0  0  0  0  0  0
   12.9078  -24.9112   -7.2038 H   0  0  0  0  0  0  0  0  0  0  0  0
   12.7279  -25.9340   -6.5998 H   0  0  0  0  0  0  0  0  0  0  0  0
   14.9754  -27.8530   -7.0812 H   0  0  0  0  0  0  0  0  0  0  0  0
   12.0786  -26.7527   -5.7978 H   0  0  0  0  0  0  0  0  0  0  0  0
   14.2470  -28.7927   -6.1667 H   0  0  0  0  0  0  0  0  0  0  0  0
   12.7093  -28.6916   -3.5948 H   0  0  0  0  0  0  0  0  0  0  0  0
   11.4282  -29.6746   -5.6301 H   0  0  0  0  0  0  0  0  0  0  0  0
  1  2  1  0
  2  3  1  0
  3  4  1  0
  4  5  1  0
  5  6  1  0
  6  7  1  0
  7  8  1  0
  8  9  1  0
  9 10  1  0
 10 11  1  0
 10 12  1  0
  7 13  1  0
 13 14  1  0
 14 15  1  0
 14 16  1  0
  4 17  1  0
 17 18  1  0
 18 19  1  0
 19 20  1  0
 20 21  1  0
 21 22  1  0
 19  2  1  0
  7  5  1  0
  1 23  1  0
  1 24  1  0
  1 25  1  0
  2 26  1  0
  3 27  1  0
  3 28  1  0
  4 29  1  0
  5 30  1  0
  6 31  1  0
  6 32  1  0
  8 33  1  0
  8 34  1  0
  9 35  1  0
  9 36  1  0
 10 37  1  0
 11 38  1  0
 12 39  1  0
 13 40  1  0
 13 41  1  0
 14 42  1  0
 15 43  1  0
 15 44  1  0
 16 45  1  0
 17 46  1  0
 17 47  1  0
 18 48  1  0
 18 49  1  0
 20 50  1  0
 20 51  1  0
 21 52  1  0
 21 53  1  0
 22 54  1  0
 22 55  1  0
M  END
