
     RDKit          2D

 23 24  0  0  0  0  0  0  0  0999 V2000
   17.2078  -22.2893   -7.6831 C   0  0  0  0  0  0  0  0  0  0  0  0
   16.8726  -21.3051   -8.7642 C   0  0  0  0  0  0  0  0  0  0  0  0
   17.4230  -21.2223  -10.1571 C   0  0  0  0  0  0  0  0  0  0  0  0
   18.4448  -22.1033  -10.8128 C   0  0  0  0  0  0  0  0  0  0  0  0
   18.9152  -21.9139  -12.2245 C   0  0  0  0  0  0  0  0  0  0  0  0
   19.9296  -22.9783  -12.5217 As  0  0  0  0  0  3  0  0  0  0  0  0
   20.0860  -23.8254  -11.2938 O   0  0  0  0  0  0  0  0  0  0  0  0
   19.1683  -23.2847  -10.2376 C   0  0  0  0  0  0  0  0  0  0  0  0
   19.0489  -23.8768   -8.8647 O   0  0  0  0  0  0  0  0  0  0  0  0
   18.1764  -23.4338   -7.7277 C   0  0  0  0  0  0  0  0  0  0  0  0
   16.2073  -21.5134   -6.8788 H   0  0  0  0  0  0  0  0  0  0  0  0
   16.9649  -22.7503   -6.2765 H   0  0  0  0  0  0  0  0  0  0  0  0
   16.0655  -20.1100   -9.1770 H   0  0  0  0  0  0  0  0  0  0  0  0
   15.9404  -20.7300   -7.7394 H   0  0  0  0  0  0  0  0  0  0  0  0
   17.4172  -20.5080  -11.4761 H   0  0  0  0  0  0  0  0  0  0  0  0
   16.5036  -20.0442  -10.2856 H   0  0  0  0  0  0  0  0  0  0  0  0
   18.0581  -22.3977   -9.3938 H   0  0  0  0  0  0  0  0  0  0  0  0
   18.0100  -20.7302  -12.3953 H   0  0  0  0  0  0  0  0  0  0  0  0
   19.1855  -21.4833  -13.6357 H   0  0  0  0  0  0  0  0  0  0  0  0
   20.6594  -23.1630  -13.8191 H   0  0  0  0  0  0  0  0  0  0  0  0
   20.0106  -24.4800   -9.9033 H   0  0  0  0  0  0  0  0  0  0  0  0
   17.7358  -23.6614   -6.3120 H   0  0  0  0  0  0  0  0  0  0  0  0
   18.8999  -24.6151   -7.1525 H   0  0  0  0  0  0  0  0  0  0  0  0
  1  2  1  0
  2  3  1  0
  3  4  1  0
  4  5  1  0
  5  6  1  0
  6  7  1  0
  7  8  1  0
  8  9  1  0
  9 10  1  0
 10  1  1  0
  8  4  1  0
  1 11  1  0
  1 12  1  0
  2 13  1  0
  2 14  1  0
  3 15  1  0
  3 16  1  0
  4 17  1  0
  5 18  1  0
  5 19  1  0
  6 20  1  0
  8 21  1  0
 10 22  1  0
 10 23  1  0
M  END
