
     RDKit          2D

 26 28  0  0  0  0  0  0  0  0999 V2000
   -0.1557   26.8266    2.6421 O   0  0  0  0  0  0  0  0  0  0  0  0
   -1.1406   27.6647    3.4019 C   0  0  0  0  0  0  0  0  0  0  0  0
   -1.0398   29.1608    3.3632 O   0  0  0  0  0  0  0  0  0  0  0  0
   -2.2265   27.0067    4.2007 C   0  0  0  0  0  0  0  0  0  0  0  0
   -1.9124   25.5653    3.9294 C   0  0  0  0  0  0  0  0  0  0  0  0
   -3.0723   25.9275    4.8088 C   0  0  0  0  0  0  0  0  0  0  0  0
   -4.0573   26.7655    5.5686 C   0  0  0  0  0  0  0  0  0  0  0  0
   -4.5611   25.3953    5.9129 C   0  0  0  0  0  0  0  0  0  0  0  0
   -5.7560   25.2379    6.8058 C   0  0  0  0  0  0  0  0  0  0  0  0
   -6.4473   26.4507    7.3544 C   0  0  0  0  0  0  0  0  0  0  0  0
   -5.9435   27.8211    7.0102 C   0  0  0  0  0  0  0  0  0  0  0  0
   -5.4398   29.1914    6.6659 N   0  0  0  0  0  0  0  0  0  0  0  0
   -4.7486   27.9785    6.1173 C   0  0  0  0  0  0  0  0  0  0  0  0
    0.0462   29.8188    2.5644 H   0  0  0  0  0  0  0  0  0  0  0  0
   -2.6854   28.0690    4.5712 H   0  0  0  0  0  0  0  0  0  0  0  0
   -2.0133   24.0692    3.9682 H   0  0  0  0  0  0  0  0  0  0  0  0
   -0.7174   25.7226    3.0365 H   0  0  0  0  0  0  0  0  0  0  0  0
   -3.2675   25.1652    4.9364 H   0  0  0  0  0  0  0  0  0  0  0  0
   -3.4614   27.7361    5.1453 H   0  0  0  0  0  0  0  0  0  0  0  0
   -4.6620   23.8992    5.9517 H   0  0  0  0  0  0  0  0  0  0  0  0
   -3.9691   25.1100    5.4616 H   0  0  0  0  0  0  0  0  0  0  0  0
   -6.2598   23.8676    7.1500 H   0  0  0  0  0  0  0  0  0  0  0  0
   -7.6423   26.2934    8.2473 H   0  0  0  0  0  0  0  0  0  0  0  0
   -7.0325   28.4305    7.8424 H   0  0  0  0  0  0  0  0  0  0  0  0
   -5.5481   30.6828    6.7839 H   0  0  0  0  0  0  0  0  0  0  0  0
   -3.7678   28.8605    5.4030 H   0  0  0  0  0  0  0  0  0  0  0  0
  1  2  2  0
  2  3  1  0
  2  4  1  0
  4  5  1  0
  5  6  1  0
  6  7  1  0
  7  8  1  0
  8  9  1  0
  9 10  2  0
 10 11  1  0
 11 12  1  0
 12 13  1  0
  6  4  1  0
 13  7  1  0
 13 11  1  0
  3 14  1  0
  4 15  1  0
  5 16  1  0
  5 17  1  0
  6 18  1  0
  7 19  1  0
  8 20  1  0
  8 21  1  0
  9 22  1  0
 10 23  1  0
 11 24  1  0
 12 25  1  0
 13 26  1  0
M  END
