
     RDKit          2D

 97106  0  0  0  0  0  0  0  0999 V2000
   -2.1246   18.0714    5.9099 C   0  0  0  0  0  0  0  0  0  0  0  0
   -0.9824   18.6327    6.7038 C   0  0  0  0  0  0  0  0  0  0  0  0
    0.0283   18.4923    7.8032 C   0  0  0  0  0  0  0  0  0  0  0  0
   -0.0148   19.7452    6.9795 C   0  0  0  0  0  0  0  0  0  0  0  0
    1.1026   20.5155    7.6183 C   0  0  0  0  0  0  0  0  0  0  0  0
   -0.4460   20.7306    5.9340 C   0  0  0  0  0  0  0  0  0  0  0  0
   -1.5634   19.9603    5.2951 I   0  0  0  0  0  0  0  0  0  0  0  0
    0.5216   21.8431    6.2097 C   0  0  0  0  0  0  0  0  0  0  0  0
    1.3416   23.0985    6.2485 O   0  0  0  0  0  0  0  0  0  0  0  0
    0.8376   24.0148    5.1732 C   0  0  0  0  0  0  0  0  0  0  0  0
    1.0329   25.3570    4.5326 C   0  0  0  0  0  0  0  0  0  0  0  0
    0.0221   25.4974    3.4331 C   0  0  0  0  0  0  0  0  0  0  0  0
    0.6586   26.8409    3.2334 C   0  0  0  0  0  0  0  0  0  0  0  0
    1.2950   28.1844    3.0337 C   0  0  0  0  0  0  0  0  0  0  0  0
    1.9315   29.5279    2.8340 C   0  0  0  0  0  0  0  0  0  0  0  0
    2.5928   27.6479    3.5609 C   0  0  0  0  0  0  0  0  0  0  0  0
    3.8907   27.1115    4.0882 N   0  0  0  0  0  0  0  0  0  0  0  0
    5.0836   28.0135    4.2033 C   0  0  0  0  0  0  0  0  0  0  0  0
    6.2764   28.9156    4.3183 O   0  0  0  0  0  0  0  0  0  0  0  0
   -0.0028   28.7208    2.5065 C   0  0  0  0  0  0  0  0  0  0  0  0
   -1.3005   29.2572    1.9793 O   0  0  0  0  0  0  0  0  0  0  0  0
   -1.4054   30.6957    1.5671 C   0  0  0  0  0  0  0  0  0  0  0  0
   -0.7979   24.2419    3.3943 C   0  0  0  0  0  0  0  0  0  0  0  0
   -1.5042   24.9256    2.2613 C   0  0  0  0  0  0  0  0  0  0  0  0
   -2.2105   25.6093    1.1283 C   0  0  0  0  0  0  0  0  0  0  0  0
   -3.2614   24.6363    0.6823 C   0  0  0  0  0  0  0  0  0  0  0  0
   -3.7110   25.6048   -0.3712 Mg  0  0  0  0  0  2  0  0  0  0  0  0
   -2.6601   26.5778    0.0748 C   0  0  0  0  0  0  0  0  0  0  0  0
   -1.5252   26.9361    0.9878 C   0  0  0  0  0  0  0  0  0  0  0  0
   -0.2939   23.3256    4.4697 C   0  0  0  0  0  0  0  0  0  0  0  0
   -1.3668   22.4047    3.9692 C   0  0  0  0  0  0  0  0  0  0  0  0
   -1.9412   23.2474    2.8692 C   0  0  0  0  0  0  0  0  0  0  0  0
   -2.8188   23.6686    1.7280 N   0  0  0  0  0  0  0  0  0  0  0  0
   -3.0141   22.3264    2.3686 C   0  0  0  0  0  0  0  0  0  0  0  0
   -4.1571   21.8091    1.5463 C   0  0  0  0  0  0  0  0  0  0  0  0
   -5.3001   21.2918    0.7241 C   0  0  0  0  0  0  0  0  0  0  0  0
   -6.4430   20.7746   -0.0982 N   0  0  0  0  0  0  0  0  0  0  0  0
   -5.4941   20.1694    1.7000 N   0  0  0  0  0  0  0  0  0  0  0  0
   -0.4892   21.9834    5.1103 C   0  0  0  0  0  0  0  0  0  0  0  0
    2.1734   25.7842    5.4082 C   0  0  0  0  0  0  0  0  0  0  0  0
    3.1993   26.8066    5.7984 C   0  0  0  0  0  0  0  0  0  0  0  0
    2.6952   27.7228    4.7231 C   0  0  0  0  0  0  0  0  0  0  0  0
    2.3200   28.7569    3.7032 I   0  0  0  0  0  0  0  0  0  0  0  0
    1.6693   26.7005    4.3328 C   0  0  0  0  0  0  0  0  0  0  0  0
    0.9170   27.3209    3.1931 C   0  0  0  0  0  0  0  0  0  0  0  0
   -2.6584   16.7058    6.2262 H   0  0  0  0  0  0  0  0  0  0  0  0
   -2.7331   18.8758    4.7996 H   0  0  0  0  0  0  0  0  0  0  0  0
    1.1333   18.6627    8.8032 H   0  0  0  0  0  0  0  0  0  0  0  0
   -0.3217   17.1231    8.3057 H   0  0  0  0  0  0  0  0  0  0  0  0
    2.2200   21.2858    8.2572 H   0  0  0  0  0  0  0  0  0  0  0  0
    1.4791   19.4807    8.6369 H   0  0  0  0  0  0  0  0  0  0  0  0
    1.1381   21.8053    6.8533 H   0  0  0  0  0  0  0  0  0  0  0  0
    1.4244   21.4677    7.3473 H   0  0  0  0  0  0  0  0  0  0  0  0
    1.9804   24.5541    5.9813 H   0  0  0  0  0  0  0  0  0  0  0  0
   -0.7598   26.0747    2.2907 H   0  0  0  0  0  0  0  0  0  0  0  0
    1.3165   27.1301    4.5500 H   0  0  0  0  0  0  0  0  0  0  0  0
    0.0007   26.5516    1.9168 H   0  0  0  0  0  0  0  0  0  0  0  0
    2.5680   30.8713    2.6343 H   0  0  0  0  0  0  0  0  0  0  0  0
    3.3394   29.3378    3.3157 H   0  0  0  0  0  0  0  0  0  0  0  0
    0.7266   30.2186    2.2675 H   0  0  0  0  0  0  0  0  0  0  0  0
    3.2210   28.9992    3.3894 H   0  0  0  0  0  0  0  0  0  0  0  0
    3.5164   28.8292    3.5221 H   0  0  0  0  0  0  0  0  0  0  0  0
    4.3404   25.7669    4.5778 H   0  0  0  0  0  0  0  0  0  0  0  0
    4.4266   29.2539    3.6742 H   0  0  0  0  0  0  0  0  0  0  0  0
    5.8920   26.8746    4.7504 H   0  0  0  0  0  0  0  0  0  0  0  0
    6.1714   30.3540    3.9062 H   0  0  0  0  0  0  0  0  0  0  0  0
    0.4783   30.1119    2.2175 H   0  0  0  0  0  0  0  0  0  0  0  0
   -0.6468   27.3852    2.7329 H   0  0  0  0  0  0  0  0  0  0  0  0
   -1.5102   32.1342    1.1550 H   0  0  0  0  0  0  0  0  0  0  0  0
   -2.8613   30.5023    1.2623 H   0  0  0  0  0  0  0  0  0  0  0  0
    0.0505   30.8892    1.8720 H   0  0  0  0  0  0  0  0  0  0  0  0
   -1.8840   23.3571    2.8582 H   0  0  0  0  0  0  0  0  0  0  0  0
   -2.0574   23.6888    1.6177 H   0  0  0  0  0  0  0  0  0  0  0  0
   -1.0336   26.2557    2.7706 H   0  0  0  0  0  0  0  0  0  0  0  0
   -4.3592   23.7886    0.1112 H   0  0  0  0  0  0  0  0  0  0  0  0
   -3.2184   23.3834    1.5059 H   0  0  0  0  0  0  0  0  0  0  0  0
   -2.8224   27.7651   -0.8273 H   0  0  0  0  0  0  0  0  0  0  0  0
   -1.4687   28.2331    0.2364 H   0  0  0  0  0  0  0  0  0  0  0  0
   -0.5757   26.6538    2.1142 H   0  0  0  0  0  0  0  0  0  0  0  0
   -2.1440   21.1219    3.9902 H   0  0  0  0  0  0  0  0  0  0  0  0
   -1.2721   24.5803    2.7089 H   0  0  0  0  0  0  0  0  0  0  0  0
   -3.4608   24.4336    0.6088 H   0  0  0  0  0  0  0  0  0  0  0  0
   -2.9510   21.0834    3.2059 H   0  0  0  0  0  0  0  0  0  0  0  0
   -4.0222   20.6147    2.4437 H   0  0  0  0  0  0  0  0  0  0  0  0
   -4.2920   23.0034    0.6489 H   0  0  0  0  0  0  0  0  0  0  0  0
   -5.1059   22.4143   -0.2518 H   0  0  0  0  0  0  0  0  0  0  0  0
   -7.0116   19.4145    0.1796 H   0  0  0  0  0  0  0  0  0  0  0  0
   -7.0174   21.6172   -1.1981 H   0  0  0  0  0  0  0  0  0  0  0  0
   -6.4156   20.3442    2.8706 H   0  0  0  0  0  0  0  0  0  0  0  0
   -4.8506   18.8151    1.6578 H   0  0  0  0  0  0  0  0  0  0  0  0
    2.5297   24.7346    6.4188 H   0  0  0  0  0  0  0  0  0  0  0  0
    4.2790   27.7096    6.3169 H   0  0  0  0  0  0  0  0  0  0  0  0
    3.7033   25.8903    6.8738 H   0  0  0  0  0  0  0  0  0  0  0  0
    3.5687   28.9365    4.8415 H   0  0  0  0  0  0  0  0  0  0  0  0
   -0.0212   27.6266    2.0634 H   0  0  0  0  0  0  0  0  0  0  0  0
    1.4506   28.6866    2.8766 H   0  0  0  0  0  0  0  0  0  0  0  0
   -0.1000   26.2828    2.8216 H   0  0  0  0  0  0  0  0  0  0  0  0
  1  2  2  3
  2  3  1  0
  3  4  1  0
  4  5  1  0
  4  6  1  0
  6  7  1  0
  6  8  1  0
  8  9  1  0
  9 10  1  0
 10 11  1  0
 11 12  1  0
 12 13  1  0
 13 14  1  0
 14 15  1  0
 14 16  1  0
 16 17  1  0
 17 18  1  0
 18 19  1  0
 14 20  1  0
 20 21  1  0
 21 22  1  0
 12 23  1  0
 23 24  1  0
 24 25  1  0
 25 26  1  0
 26 27  1  0
 27 28  1  0
 28 29  1  0
 23 30  1  0
 30 31  1  0
 31 32  1  0
 32 33  1  0
 33 34  1  0
 34 35  1  0
 35 36  1  0
 36 37  1  0
 36 38  1  0
 31 39  1  0
 11 40  1  0
 40 41  1  0
 41 42  1  0
 42 43  1  0
 42 44  1  0
 44 45  1  0
  4  2  1  0
 39  6  1  0
 44 40  1  0
 39  8  1  0
 30 10  1  0
 34 32  1  0
 44 11  1  0
 28 25  1  0
 39 30  1  0
 29 25  1  0
  1 46  1  0
  1 47  1  0
  3 48  1  0
  3 49  1  0
  5 50  1  0
  5 51  1  0
  5 52  1  0
  8 53  1  0
 10 54  1  0
 12 55  1  0
 13 56  1  0
 13 57  1  0
 15 58  1  0
 15 59  1  0
 15 60  1  0
 16 61  1  0
 16 62  1  0
 17 63  1  0
 18 64  1  0
 18 65  1  0
 19 66  1  0
 20 67  1  0
 20 68  1  0
 22 69  1  0
 22 70  1  0
 22 71  1  0
 23 72  1  0
 24 73  1  0
 24 74  1  0
 26 75  1  0
 26 76  1  0
 28 77  1  0
 29 78  1  0
 29 79  1  0
 31 80  1  0
 32 81  1  0
 33 82  1  0
 34 83  1  0
 35 84  1  0
 35 85  1  0
 36 86  1  0
 37 87  1  0
 37 88  1  0
 38 89  1  0
 38 90  1  0
 40 91  1  0
 41 92  1  0
 41 93  1  0
 42 94  1  0
 45 95  1  0
 45 96  1  0
 45 97  1  0
M  END
