
     RDKit          2D

 80 86  0  0  0  0  0  0  0  0999 V2000
   -9.7885   28.4559   11.1919 C   0  0  0  0  0  0  0  0  0  0  0  0
   -8.6162   27.8289   10.4972 C   0  0  0  0  0  0  0  0  0  0  0  0
   -7.4438   27.2020    9.8026 C   0  0  0  0  0  0  0  0  0  0  0  0
   -6.2715   26.5750    9.1079 C   0  0  0  0  0  0  0  0  0  0  0  0
   -5.0991   25.9481    8.4132 N   0  0  0  0  0  2  0  0  0  0  0  0
   -4.8799   26.1864    6.9487 C   0  0  0  0  0  0  0  0  0  0  0  0
   -5.9238   27.0725    6.3364 O   0  0  0  0  0  1  0  0  0  0  0  0
   -3.7076   25.5595    6.2539 C   0  0  0  0  0  0  0  0  0  0  0  0
   -2.5352   24.9325    5.5593 C   0  0  0  0  0  0  0  0  0  0  0  0
   -2.3160   25.1709    4.0947 C   0  0  0  0  0  0  0  0  0  0  0  0
   -1.1437   24.5439    3.4000 C   0  0  0  0  0  0  0  0  0  0  0  0
   -0.5228   23.8075    4.5499 C   0  0  0  0  0  0  0  0  0  0  0  0
    0.0981   23.0711    5.6999 C   0  0  0  0  0  0  0  0  0  0  0  0
    0.7189   22.3348    6.8498 C   0  0  0  0  0  0  0  0  0  0  0  0
    1.3397   21.5984    7.9998 C   0  0  0  0  0  0  0  0  0  0  0  0
    1.9606   20.8620    9.1497 C   0  0  0  0  0  0  0  0  0  0  0  0
    0.5582   23.3009    3.6419 C   0  0  0  0  0  0  0  0  0  0  0  0
    1.7864   22.5730    3.1818 C   0  0  0  0  0  0  0  0  0  0  0  0
    1.3574   22.4877    4.6166 C   0  0  0  0  0  0  0  0  0  0  0  0
    2.4356   21.5967    5.1585 C   0  0  0  0  0  0  0  0  0  0  0  0
   -2.0967   25.4091    2.6301 C   0  0  0  0  0  0  0  0  0  0  0  0
   -3.0498   26.2744    1.8601 C   0  0  0  0  0  0  0  0  0  0  0  0
   -2.4241   26.2037    0.4986 C   0  0  0  0  0  0  0  0  0  0  0  0
   -2.2050   26.4420   -0.9660 C   0  0  0  0  0  0  0  0  0  0  0  0
   -3.3773   27.0689   -0.2713 C   0  0  0  0  0  0  0  0  0  0  0  0
   -3.9982   27.8051   -1.4213 C   0  0  0  0  0  0  0  0  0  0  0  0
   -4.6192   28.5414   -2.5712 C   0  0  0  0  0  0  0  0  0  0  0  0
   -5.2401   29.2776   -3.7212 C   0  0  0  0  0  0  0  0  0  0  0  0
   -3.2690   26.0361    3.3247 C   0  0  0  0  0  0  0  0  0  0  0  0
   -4.4414   26.6631    4.0194 C   0  0  0  0  0  0  0  0  0  0  0  0
   -4.8650   27.3005    2.7293 O   0  0  0  0  0  0  0  0  0  0  0  0
   -5.6137   27.2901    4.7141 C   0  0  0  0  0  0  0  0  0  0  0  0
   -6.2348   28.0261    3.5640 C   0  0  0  0  0  0  0  0  0  0  0  0
   -7.3131   28.9170    3.0221 C   0  0  0  0  0  0  0  0  0  0  0  0
   -7.9387   28.9879    4.3837 O   0  0  0  0  0  0  0  0  0  0  0  0
   -6.8603   28.0971    4.9256 C   0  0  0  0  0  0  0  0  0  0  0  0
   -7.1854   27.9351    6.3809 O   0  0  0  0  0  0  0  0  0  0  0  0
  -10.9609   29.0829   11.8865 H   0  0  0  0  0  0  0  0  0  0  0  0
   -6.5276   27.7453   10.8586 H   0  0  0  0  0  0  0  0  0  0  0  0
   -8.3601   26.6586    8.7465 H   0  0  0  0  0  0  0  0  0  0  0  0
   -6.6953   27.2119    7.8177 H   0  0  0  0  0  0  0  0  0  0  0  0
   -5.8476   25.9381   10.3982 H   0  0  0  0  0  0  0  0  0  0  0  0
   -1.8048   24.1473    6.6081 H   0  0  0  0  0  0  0  0  0  0  0  0
   -0.4534   24.3257    2.4242 H   0  0  0  0  0  0  0  0  0  0  0  0
   -1.5201   24.2206    5.5915 H   0  0  0  0  0  0  0  0  0  0  0  0
    0.8011   22.8262    5.4150 H   0  0  0  0  0  0  0  0  0  0  0  0
   -1.0260   23.2705    6.6729 H   0  0  0  0  0  0  0  0  0  0  0  0
    0.1611   23.3510    7.8017 H   0  0  0  0  0  0  0  0  0  0  0  0
    1.3482   21.2364    6.0452 H   0  0  0  0  0  0  0  0  0  0  0  0
    2.4282   21.1026    7.0945 H   0  0  0  0  0  0  0  0  0  0  0  0
    0.2513   22.0942    8.9049 H   0  0  0  0  0  0  0  0  0  0  0  0
    2.5814   20.1257   10.2995 H   0  0  0  0  0  0  0  0  0  0  0  0
    3.0389   20.3514    8.2405 H   0  0  0  0  0  0  0  0  0  0  0  0
    0.8823   21.3726   10.0588 H   0  0  0  0  0  0  0  0  0  0  0  0
    0.3334   23.7513    2.5360 H   0  0  0  0  0  0  0  0  0  0  0  0
    1.7894   22.9573    1.7319 H   0  0  0  0  0  0  0  0  0  0  0  0
    3.0312   21.7470    3.0465 H   0  0  0  0  0  0  0  0  0  0  0  0
    0.9127   22.4943    5.7473 H   0  0  0  0  0  0  0  0  0  0  0  0
    3.5138   20.7056    5.7003 H   0  0  0  0  0  0  0  0  0  0  0  0
    1.9413   21.5514    6.5739 H   0  0  0  0  0  0  0  0  0  0  0  0
    3.1928   21.4247    3.8750 H   0  0  0  0  0  0  0  0  0  0  0  0
   -4.2202   27.1643    1.5629 H   0  0  0  0  0  0  0  0  0  0  0  0
   -1.2536   25.3140    0.7959 H   0  0  0  0  0  0  0  0  0  0  0  0
   -0.9583   25.6350   -1.1774 H   0  0  0  0  0  0  0  0  0  0  0  0
   -2.2674   26.8679   -2.4029 H   0  0  0  0  0  0  0  0  0  0  0  0
   -4.3341   27.4401    0.8227 H   0  0  0  0  0  0  0  0  0  0  0  0
   -5.0807   28.3097   -0.5138 H   0  0  0  0  0  0  0  0  0  0  0  0
   -2.9996   27.3940   -2.4623 H   0  0  0  0  0  0  0  0  0  0  0  0
   -3.5369   28.0366   -3.4788 H   0  0  0  0  0  0  0  0  0  0  0  0
   -5.7016   29.0462   -1.6637 H   0  0  0  0  0  0  0  0  0  0  0  0
   -5.8610   30.0138   -4.8712 H   0  0  0  0  0  0  0  0  0  0  0  0
   -5.1817   30.5541   -2.9356 H   0  0  0  0  0  0  0  0  0  0  0  0
   -5.2986   28.0012   -4.5069 H   0  0  0  0  0  0  0  0  0  0  0  0
   -4.0178   26.0258    5.3094 H   0  0  0  0  0  0  0  0  0  0  0  0
   -4.0618   27.0756    1.4825 H   0  0  0  0  0  0  0  0  0  0  0  0
   -5.5510   26.8645    6.1510 H   0  0  0  0  0  0  0  0  0  0  0  0
   -5.5906   27.9396    2.2122 H   0  0  0  0  0  0  0  0  0  0  0  0
   -8.3915   29.8078    2.4803 H   0  0  0  0  0  0  0  0  0  0  0  0
   -6.6876   28.8459    1.6607 H   0  0  0  0  0  0  0  0  0  0  0  0
   -8.3903   28.6152    6.9604 H   0  0  0  0  0  0  0  0  0  0  0  0
  1  2  3  0
  2  3  1  0
  3  4  1  0
  4  5  1  0
  5  6  1  0
  6  7  1  0
  6  8  2  0
  8  9  2  0
  9 10  1  0
 10 11  1  0
 11 12  1  0
 12 13  1  0
 13 14  1  0
 14 15  1  0
 15 16  1  0
 12 17  1  0
 17 18  1  0
 18 19  1  0
 19 20  1  0
 11 21  1  0
 21 22  1  0
 22 23  1  0
 23 24  1  0
 24 25  1  0
 25 26  1  0
 26 27  1  0
 27 28  1  0
 22 29  1  0
 29 30  1  0
 30 31  1  0
 30 32  1  0
 32 33  1  0
 33 34  1  0
 34 35  1  0
 35 36  1  0
 36 37  1  0
 21 10  1  0
 25 23  1  0
 36 32  1  0
 29 10  1  0
 36 33  1  0
 19 17  1  0
 29 21  1  0
  1 38  1  0
  3 39  1  0
  3 40  1  0
  4 41  1  0
  4 42  1  0
  9 43  1  0
 11 44  1  0
 12 45  1  0
 13 46  1  0
 13 47  1  0
 14 48  1  0
 14 49  1  0
 15 50  1  0
 15 51  1  0
 16 52  1  0
 16 53  1  0
 16 54  1  0
 17 55  1  0
 18 56  1  0
 18 57  1  0
 19 58  1  0
 20 59  1  0
 20 60  1  0
 20 61  1  0
 22 62  1  0
 23 63  1  0
 24 64  1  0
 24 65  1  0
 25 66  1  0
 26 67  1  0
 26 68  1  0
 27 69  1  0
 27 70  1  0
 28 71  1  0
 28 72  1  0
 28 73  1  0
 30 74  1  0
 31 75  1  0
 32 76  1  0
 33 77  1  0
 34 78  1  0
 34 79  1  0
 37 80  1  0
M  RAD  2   5   2   7   2
M  END
