
     RDKit          2D

 32 34  0  0  0  0  0  0  0  0999 V2000
   -3.3226   25.9706    9.2873 N   0  0  0  0  0  0  0  0  0  0  0  0
   -2.1311   25.8253   10.1869 C   0  0  0  0  0  0  0  0  0  0  0  0
   -3.0350   25.8251   11.3840 C   0  0  0  0  0  0  0  0  0  0  0  0
   -3.9389   25.8250   12.5811 Cl  0  0  0  0  0  0  0  0  0  0  0  0
   -1.2273   25.8255    8.9898 C   0  0  0  0  0  0  0  0  0  0  0  0
   -0.3235   25.8256    7.7927 C   0  0  0  0  0  0  0  0  0  0  0  0
   -1.3398   25.9697    6.6989 C   0  0  0  0  0  0  0  0  0  0  0  0
   -0.8980   26.0199    5.2663 C   0  0  0  0  0  0  0  0  0  0  0  0
    0.0059   26.0200    4.0693 C   0  0  0  0  0  0  0  0  0  0  0  0
    0.9097   26.0202    2.8722 C   0  0  0  0  0  0  0  0  0  0  0  0
    1.3516   26.0704    1.4396 C   0  0  0  0  0  0  0  0  0  0  0  0
   -0.1066   26.1643    1.7784 N   0  0  0  0  0  0  0  0  0  0  0  0
    0.1184   25.8758    6.3601 C   0  0  0  0  0  0  0  0  0  0  0  0
    1.5766   25.7819    6.0213 N   0  0  0  0  0  0  0  0  0  0  0  0
   -3.5002   26.0714    7.8012 H   0  0  0  0  0  0  0  0  0  0  0  0
   -4.7616   26.0581    9.7019 H   0  0  0  0  0  0  0  0  0  0  0  0
   -0.9397   25.6800   11.0865 H   0  0  0  0  0  0  0  0  0  0  0  0
   -1.8502   25.6102   12.2784 H   0  0  0  0  0  0  0  0  0  0  0  0
   -4.3212   26.0384   10.6421 H   0  0  0  0  0  0  0  0  0  0  0  0
   -2.2996   25.9718    7.9511 H   0  0  0  0  0  0  0  0  0  0  0  0
   -0.0360   25.6781    9.8893 H   0  0  0  0  0  0  0  0  0  0  0  0
    1.0068   25.6816    8.4707 H   0  0  0  0  0  0  0  0  0  0  0  0
   -2.8276   26.0766    6.8574 H   0  0  0  0  0  0  0  0  0  0  0  0
   -2.2282   26.1639    4.5884 H   0  0  0  0  0  0  0  0  0  0  0  0
   -1.1855   26.1662    3.1697 H   0  0  0  0  0  0  0  0  0  0  0  0
    1.1693   25.8895    4.7415 H   0  0  0  0  0  0  0  0  0  0  0  0
    2.2400   25.8762    3.5502 H   0  0  0  0  0  0  0  0  0  0  0  0
    2.8354   25.9438    1.6201 H   0  0  0  0  0  0  0  0  0  0  0  0
    1.2782   26.1646   -0.0557 H   0  0  0  0  0  0  0  0  0  0  0  0
   -1.5353   26.3017    1.3425 H   0  0  0  0  0  0  0  0  0  0  0  0
    2.1431   25.9693    4.8103 H   0  0  0  0  0  0  0  0  0  0  0  0
    2.5749   25.4479    7.0899 H   0  0  0  0  0  0  0  0  0  0  0  0
  1  2  1  0
  2  3  1  0
  3  4  1  0
  2  5  1  0
  5  6  1  0
  6  7  1  0
  7  8  1  0
  8  9  1  0
  9 10  1  0
 10 11  1  0
 11 12  1  0
  8 13  1  0
 13 14  1  0
 13  6  1  0
 13  7  1  0
 12 10  1  0
  1 15  1  0
  1 16  1  0
  2 17  1  0
  3 18  1  0
  3 19  1  0
  5 20  1  0
  5 21  1  0
  6 22  1  0
  7 23  1  0
  8 24  1  0
  9 25  1  0
  9 26  1  0
 10 27  1  0
 11 28  1  0
 11 29  1  0
 12 30  1  0
 14 31  1  0
 14 32  1  0
M  END
