
     RDKit          2D

 56 58  0  0  0  0  0  0  0  0999 V2000
   -2.9280   18.7741   12.5162 O   0  0  0  0  0  0  0  0  0  0  0  0
   -3.4773   20.1304   12.1864 C   0  0  0  0  0  0  0  0  0  0  0  0
   -4.0267   21.4867   11.8567 C   0  0  0  0  0  0  0  0  0  0  0  0
   -4.5761   22.8429   11.5269 C   0  0  0  0  0  0  0  0  0  0  0  0
   -5.1255   24.1992   11.1971 C   0  0  0  0  0  0  0  0  0  0  0  0
   -5.6748   25.5554   10.8673 C   0  0  0  0  0  0  0  0  0  0  0  0
   -5.0166   26.3952    9.8130 C   0  0  0  0  0  0  0  0  0  0  0  0
   -4.3583   27.2350    8.7588 C   0  0  0  0  0  0  0  0  0  0  0  0
   -3.1507   26.7186    8.0344 C   0  0  0  0  0  0  0  0  0  0  0  0
   -3.0029   25.3803    8.6955 C   0  0  0  0  0  0  0  0  0  0  0  0
   -2.0373   25.7996    7.6269 C   0  0  0  0  0  0  0  0  0  0  0  0
   -1.3791   26.6394    6.5727 C   0  0  0  0  0  0  0  0  0  0  0  0
   -1.2262   27.8652    5.7217 C   0  0  0  0  0  0  0  0  0  0  0  0
   -0.1929   28.1527    4.6730 C   0  0  0  0  0  0  0  0  0  0  0  0
    0.9425   27.2855    4.2163 C   0  0  0  0  0  0  0  0  0  0  0  0
    1.3253   25.9166    4.6954 C   0  0  0  0  0  0  0  0  0  0  0  0
    2.3585   26.2041    3.6467 C   0  0  0  0  0  0  0  0  0  0  0  0
    3.3917   26.4917    2.5980 C   0  0  0  0  0  0  0  0  0  0  0  0
    4.5775   26.3041    1.6988 C   0  0  0  0  0  0  0  0  0  0  0  0
    4.1900   25.2234    2.6642 C   0  0  0  0  0  0  0  0  0  0  0  0
    0.6670   25.0768    5.7496 C   0  0  0  0  0  0  0  0  0  0  0  0
   -0.5366   25.3985    6.5851 C   0  0  0  0  0  0  0  0  0  0  0  0
   -1.8848   18.6269   13.5839 H   0  0  0  0  0  0  0  0  0  0  0  0
   -2.5777   20.7454   13.2172 H   0  0  0  0  0  0  0  0  0  0  0  0
   -4.3769   19.5153   11.1557 H   0  0  0  0  0  0  0  0  0  0  0  0
   -3.1239   22.1022   12.8844 H   0  0  0  0  0  0  0  0  0  0  0  0
   -4.9294   20.8711   10.8290 H   0  0  0  0  0  0  0  0  0  0  0  0
   -3.6841   23.4566   12.5650 H   0  0  0  0  0  0  0  0  0  0  0  0
   -5.4681   22.2291   10.4888 H   0  0  0  0  0  0  0  0  0  0  0  0
   -6.0128   23.5862   10.1545 H   0  0  0  0  0  0  0  0  0  0  0  0
   -4.2382   24.8121   12.2396 H   0  0  0  0  0  0  0  0  0  0  0  0
   -6.8825   26.0718   11.5917 H   0  0  0  0  0  0  0  0  0  0  0  0
   -4.9077   28.5913    8.4290 H   0  0  0  0  0  0  0  0  0  0  0  0
   -3.1701   27.8893    7.3625 H   0  0  0  0  0  0  0  0  0  0  0  0
   -2.4535   24.0240    9.0252 H   0  0  0  0  0  0  0  0  0  0  0  0
   -4.1592   25.4319    9.6496 H   0  0  0  0  0  0  0  0  0  0  0  0
   -1.2597   24.5201    7.7172 H   0  0  0  0  0  0  0  0  0  0  0  0
   -2.4010   27.4199    6.9838 H   0  0  0  0  0  0  0  0  0  0  0  0
   -2.4225   28.4993    6.3673 H   0  0  0  0  0  0  0  0  0  0  0  0
   -1.7458   29.2261    5.3639 H   0  0  0  0  0  0  0  0  0  0  0  0
   -0.9234   29.4549    4.5292 H   0  0  0  0  0  0  0  0  0  0  0  0
    0.3368   29.1181    3.6544 H   0  0  0  0  0  0  0  0  0  0  0  0
    1.2406   28.4278    3.2909 H   0  0  0  0  0  0  0  0  0  0  0  0
    1.5698   27.2020    3.7314 H   0  0  0  0  0  0  0  0  0  0  0  0
    2.0883   24.9759    4.5989 H   0  0  0  0  0  0  0  0  0  0  0  0
    2.7508   25.0922    3.9401 H   0  0  0  0  0  0  0  0  0  0  0  0
    2.1011   26.9336    3.4542 H   0  0  0  0  0  0  0  0  0  0  0  0
    2.9523   27.8597    2.1676 H   0  0  0  0  0  0  0  0  0  0  0  0
    4.5500   27.6069    0.9561 H   0  0  0  0  0  0  0  0  0  0  0  0
    5.7730   25.6639    1.0575 H   0  0  0  0  0  0  0  0  0  0  0  0
    5.2508   24.2079    2.3582 H   0  0  0  0  0  0  0  0  0  0  0  0
    3.5547   24.3595    3.7130 H   0  0  0  0  0  0  0  0  0  0  0  0
    1.7433   24.0868    5.4154 H   0  0  0  0  0  0  0  0  0  0  0  0
    0.6614   23.7858    6.5134 H   0  0  0  0  0  0  0  0  0  0  0  0
   -0.2966   24.0419    7.1784 H   0  0  0  0  0  0  0  0  0  0  0  0
   -1.4855   24.9500    7.6567 H   0  0  0  0  0  0  0  0  0  0  0  0
  1  2  1  0
  2  3  1  0
  3  4  1  0
  4  5  1  0
  5  6  1  0
  6  7  2  0
  7  8  2  0
  8  9  1  0
  9 10  1  0
 10 11  1  0
 11 12  1  0
 12 13  1  0
 13 14  1  0
 14 15  1  0
 15 16  1  0
 16 17  1  0
 17 18  1  0
 18 19  1  0
 19 20  1  0
 16 21  1  0
 21 22  1  0
 11  9  1  0
 22 12  1  0
 20 18  1  0
  1 23  1  0
  2 24  1  0
  2 25  1  0
  3 26  1  0
  3 27  1  0
  4 28  1  0
  4 29  1  0
  5 30  1  0
  5 31  1  0
  6 32  1  0
  8 33  1  0
  9 34  1  0
 10 35  1  0
 10 36  1  0
 11 37  1  0
 12 38  1  0
 13 39  1  0
 13 40  1  0
 14 41  1  0
 14 42  1  0
 15 43  1  0
 15 44  1  0
 16 45  1  0
 17 46  1  0
 17 47  1  0
 18 48  1  0
 19 49  1  0
 19 50  1  0
 20 51  1  0
 20 52  1  0
 21 53  1  0
 21 54  1  0
 22 55  1  0
 22 56  1  0
M  END
