
     RDKit          2D

 52 54  0  0  0  0  0  0  0  0999 V2000
   -1.5729   27.8783   -0.6787 C   0  0  0  0  0  0  0  0  0  0  0  0
   -1.1730   27.7934    0.7645 C   0  0  0  0  0  0  0  0  0  0  0  0
   -0.7732   27.7085    2.2078 C   0  0  0  0  0  0  0  0  0  0  0  0
   -0.3734   27.6236    3.6510 C   0  0  0  0  0  0  0  0  0  0  0  0
    0.7535   28.6135    3.6678 C   0  0  0  0  0  0  0  0  0  0  0  0
    1.8832   29.4545    4.1839 O   0  0  0  0  0  0  0  0  0  0  0  0
    0.3696   27.8927    4.9260 C   0  0  0  0  0  0  0  0  0  0  0  0
   -0.3604   26.9666    5.8532 C   0  0  0  0  0  0  0  0  0  0  0  0
    0.3825   27.2358    7.1282 C   0  0  0  0  0  0  0  0  0  0  0  0
   -0.7443   26.2458    7.1114 C   0  0  0  0  0  0  0  0  0  0  0  0
   -0.0014   26.5149    8.3864 N   0  0  0  0  0  0  0  0  0  0  0  0
    0.2059   26.2541    9.8489 C   0  0  0  0  0  0  0  0  0  0  0  0
   -0.6662   25.2664   10.5656 O   0  0  0  0  0  0  0  0  0  0  0  0
    1.2854   26.9810   10.5948 C   0  0  0  0  0  0  0  0  0  0  0  0
    2.3649   27.7079   11.3406 C   0  0  0  0  0  0  0  0  0  0  0  0
    1.3969   28.8044   11.6732 N   0  0  0  0  0  0  0  0  0  0  0  0
    3.4444   28.4348   12.0865 C   0  0  0  0  0  0  0  0  0  0  0  0
    4.5240   29.1617   12.8323 C   0  0  0  0  0  0  0  0  0  0  0  0
    5.6035   29.8885   13.5782 C   0  0  0  0  0  0  0  0  0  0  0  0
    6.6830   30.6154   14.3240 C   0  0  0  0  0  0  0  0  0  0  0  0
    7.7626   31.3422   15.0698 C   0  0  0  0  0  0  0  0  0  0  0  0
    8.8421   32.0691   15.8157 O   0  0  0  0  0  0  0  0  0  0  0  0
   -1.9728   27.9632   -2.1219 H   0  0  0  0  0  0  0  0  0  0  0  0
   -0.4999   28.8993   -0.9159 H   0  0  0  0  0  0  0  0  0  0  0  0
   -2.6459   26.8573   -0.4415 H   0  0  0  0  0  0  0  0  0  0  0  0
   -2.0814   26.6137    0.9468 H   0  0  0  0  0  0  0  0  0  0  0  0
   -0.2647   28.9731    0.5823 H   0  0  0  0  0  0  0  0  0  0  0  0
   -1.8929   26.7430    2.4611 H   0  0  0  0  0  0  0  0  0  0  0  0
    0.1831   28.5803    1.8231 H   0  0  0  0  0  0  0  0  0  0  0  0
   -1.4247   26.6003    3.9636 H   0  0  0  0  0  0  0  0  0  0  0  0
    0.8715   29.0985    2.4135 H   0  0  0  0  0  0  0  0  0  0  0  0
    2.6132   30.3806    3.2567 H   0  0  0  0  0  0  0  0  0  0  0  0
    1.3660   28.4833    5.8790 H   0  0  0  0  0  0  0  0  0  0  0  0
   -1.4183   26.2784    5.0426 H   0  0  0  0  0  0  0  0  0  0  0  0
    1.5093   28.2257    7.1451 H   0  0  0  0  0  0  0  0  0  0  0  0
   -1.8711   25.2558    7.0946 H   0  0  0  0  0  0  0  0  0  0  0  0
    0.3170   28.0770   10.9282 H   0  0  0  0  0  0  0  0  0  0  0  0
    2.1149   25.8047   10.1730 H   0  0  0  0  0  0  0  0  0  0  0  0
    3.3330   26.6115   11.0081 H   0  0  0  0  0  0  0  0  0  0  0  0
    1.6755   30.0432   12.4717 H   0  0  0  0  0  0  0  0  0  0  0  0
   -0.0471   28.8853   11.2750 H   0  0  0  0  0  0  0  0  0  0  0  0
    4.4127   27.3386   11.7534 H   0  0  0  0  0  0  0  0  0  0  0  0
    2.6151   29.6114   12.5080 H   0  0  0  0  0  0  0  0  0  0  0  0
    3.5565   30.2593   13.1630 H   0  0  0  0  0  0  0  0  0  0  0  0
    5.4915   28.0641   12.5017 H   0  0  0  0  0  0  0  0  0  0  0  0
    4.5718   30.4888   14.4867 H   0  0  0  0  0  0  0  0  0  0  0  0
    6.6352   29.2883   12.6697 H   0  0  0  0  0  0  0  0  0  0  0  0
    7.6522   29.5211   13.9877 H   0  0  0  0  0  0  0  0  0  0  0  0
    5.7138   31.7098   14.6603 H   0  0  0  0  0  0  0  0  0  0  0  0
    6.7936   32.4368   15.4058 H   0  0  0  0  0  0  0  0  0  0  0  0
    8.7317   30.2477   14.7339 H   0  0  0  0  0  0  0  0  0  0  0  0
   10.2203   31.4830   15.9003 H   0  0  0  0  0  0  0  0  0  0  0  0
  1  2  1  0
  2  3  1  0
  3  4  1  0
  4  5  1  0
  5  6  1  0
  5  7  1  0
  7  8  1  0
  8  9  1  0
  9 10  1  0
 10 11  1  0
 11 12  1  0
 12 13  2  0
 12 14  1  0
 14 15  1  0
 15 16  1  0
 15 17  1  0
 17 18  1  0
 18 19  1  0
 19 20  1  0
 20 21  1  0
 21 22  1  0
  7  4  1  0
 10  8  1  0
 11  9  1  0
  1 23  1  0
  1 24  1  0
  1 25  1  0
  2 26  1  0
  2 27  1  0
  3 28  1  0
  3 29  1  0
  4 30  1  0
  5 31  1  0
  6 32  1  0
  7 33  1  0
  8 34  1  0
  9 35  1  0
 10 36  1  0
 14 37  1  0
 14 38  1  0
 15 39  1  0
 16 40  1  0
 16 41  1  0
 17 42  1  0
 17 43  1  0
 18 44  1  0
 18 45  1  0
 19 46  1  0
 19 47  1  0
 20 48  1  0
 20 49  1  0
 21 50  1  0
 21 51  1  0
 22 52  1  0
M  END
