
     RDKit          2D

 59 61  0  0  0  0  0  0  0  0999 V2000
   16.6262  -17.4116  -11.6517 C   0  0  0  0  0  0  0  0  0  0  0  0
   17.6245  -17.4158  -10.5322 C   0  0  0  0  0  0  0  0  0  0  0  0
   18.6227  -17.4201   -9.4126 C   0  0  0  0  0  0  0  0  0  0  0  0
   19.6209  -17.4244   -8.2930 C   0  0  0  0  0  0  0  0  0  0  0  0
   20.4700  -16.4436   -9.0463 N   0  0  0  0  0  0  0  0  0  0  0  0
   21.7590  -15.9570   -8.4533 C   0  0  0  0  0  0  0  0  0  0  0  0
   23.0480  -15.4703   -7.8604 C   0  0  0  0  0  0  0  0  0  0  0  0
   24.3370  -14.9836   -7.2675 O   0  0  0  0  0  0  0  0  0  0  0  0
   20.6193  -17.4286   -7.1734 C   0  0  0  0  0  0  0  0  0  0  0  0
   19.7779  -18.4211   -6.4270 C   0  0  0  0  0  0  0  0  0  0  0  0
   21.4605  -16.4361   -7.9198 C   0  0  0  0  0  0  0  0  0  0  0  0
   22.4589  -16.4403   -6.8002 C   0  0  0  0  0  0  0  0  0  0  0  0
   21.6175  -17.4328   -6.0539 C   0  0  0  0  0  0  0  0  0  0  0  0
   20.7762  -18.4254   -5.3074 C   0  0  0  0  0  0  0  0  0  0  0  0
   16.7796  -18.4029   -9.7825 C   0  0  0  0  0  0  0  0  0  0  0  0
   15.9347  -19.3899   -9.0330 C   0  0  0  0  0  0  0  0  0  0  0  0
   17.0989  -19.1791   -8.1110 N   0  0  0  0  0  0  0  0  0  0  0  0
   15.6080  -20.2832   -7.8730 C   0  0  0  0  0  0  0  0  0  0  0  0
   14.4123  -21.1685   -7.6823 O   0  0  0  0  0  0  0  0  0  0  0  0
   13.2480  -21.3794   -8.6043 C   0  0  0  0  0  0  0  0  0  0  0  0
   12.0072  -21.7316   -9.3700 C   0  0  0  0  0  0  0  0  0  0  0  0
   11.3775  -22.7009   -8.4140 F   0  0  0  0  0  0  0  0  0  0  0  0
   12.9919  -20.7569   -9.9448 N   0  0  0  0  0  0  0  0  0  0  0  0
   13.8368  -19.7699  -10.6943 O   0  0  0  0  0  0  0  0  0  0  0  0
   15.1465  -19.1615  -10.2886 C   0  0  0  0  0  0  0  0  0  0  0  0
   15.6279  -17.4073  -12.7714 H   0  0  0  0  0  0  0  0  0  0  0  0
   17.4720  -16.4260  -12.4022 H   0  0  0  0  0  0  0  0  0  0  0  0
   15.7804  -18.3972  -10.9013 H   0  0  0  0  0  0  0  0  0  0  0  0
   18.4693  -16.4288  -11.2817 H   0  0  0  0  0  0  0  0  0  0  0  0
   19.0716  -16.8953   -9.8108 H   0  0  0  0  0  0  0  0  0  0  0  0
   18.9299  -16.9103   -9.9430 H   0  0  0  0  0  0  0  0  0  0  0  0
   18.6566  -18.3972   -7.6818 H   0  0  0  0  0  0  0  0  0  0  0  0
   20.3417  -15.7593  -10.3749 H   0  0  0  0  0  0  0  0  0  0  0  0
   21.4506  -14.5562   -8.0145 H   0  0  0  0  0  0  0  0  0  0  0  0
   22.3983  -17.2793   -8.7578 H   0  0  0  0  0  0  0  0  0  0  0  0
   23.8123  -16.3833   -8.7727 H   0  0  0  0  0  0  0  0  0  0  0  0
   22.6183  -14.4667   -6.8318 H   0  0  0  0  0  0  0  0  0  0  0  0
   25.6136  -15.7232   -7.5383 H   0  0  0  0  0  0  0  0  0  0  0  0
   18.9366  -19.4136   -5.6807 H   0  0  0  0  0  0  0  0  0  0  0  0
   20.5409  -18.6623   -5.1583 H   0  0  0  0  0  0  0  0  0  0  0  0
   18.6866  -18.5411   -7.4492 H   0  0  0  0  0  0  0  0  0  0  0  0
   22.5184  -15.4741   -8.3731 H   0  0  0  0  0  0  0  0  0  0  0  0
   20.6956  -16.1917   -9.1867 H   0  0  0  0  0  0  0  0  0  0  0  0
   23.4571  -16.4446   -5.6807 H   0  0  0  0  0  0  0  0  0  0  0  0
   23.5167  -15.4783   -7.2535 H   0  0  0  0  0  0  0  0  0  0  0  0
   22.6157  -17.4371   -4.9342 H   0  0  0  0  0  0  0  0  0  0  0  0
   19.9348  -19.4179   -4.5611 H   0  0  0  0  0  0  0  0  0  0  0  0
   21.7742  -18.4293   -4.1877 H   0  0  0  0  0  0  0  0  0  0  0  0
   19.6042  -18.6617   -6.2133 H   0  0  0  0  0  0  0  0  0  0  0  0
   15.7795  -18.3958  -10.9005 H   0  0  0  0  0  0  0  0  0  0  0  0
   17.8752  -18.2896   -8.7643 H   0  0  0  0  0  0  0  0  0  0  0  0
   18.2795  -18.2821   -8.3382 H   0  0  0  0  0  0  0  0  0  0  0  0
   17.3197  -19.8224   -6.7740 H   0  0  0  0  0  0  0  0  0  0  0  0
   16.8176  -19.9939   -7.0347 H   0  0  0  0  0  0  0  0  0  0  0  0
   15.8641  -20.9056   -6.5325 H   0  0  0  0  0  0  0  0  0  0  0  0
   12.7358  -22.3253   -7.5588 H   0  0  0  0  0  0  0  0  0  0  0  0
   10.9851  -21.7472  -10.4678 H   0  0  0  0  0  0  0  0  0  0  0  0
   14.8904  -18.5390  -11.6291 H   0  0  0  0  0  0  0  0  0  0  0  0
   16.3421  -18.2762  -10.4793 H   0  0  0  0  0  0  0  0  0  0  0  0
  1  2  1  0
  2  3  1  0
  3  4  1  0
  4  5  1  0
  5  6  1  0
  6  7  1  0
  7  8  1  0
  4  9  1  0
  9 10  1  0
  9 11  1  0
 11 12  1  0
 12 13  1  0
 13 14  1  0
  2 15  1  0
 15 16  1  0
 16 17  1  0
 16 18  1  0
 18 19  1  0
 19 20  1  0
 20 21  1  0
 21 22  1  0
 21 23  1  0
 23 24  1  0
 24 25  1  0
 13  9  1  0
 25 16  1  0
 23 20  1  0
  1 26  1  0
  1 27  1  0
  1 28  1  0
  2 29  1  0
  3 30  1  0
  3 31  1  0
  4 32  1  0
  5 33  1  0
  6 34  1  0
  6 35  1  0
  7 36  1  0
  7 37  1  0
  8 38  1  0
 10 39  1  0
 10 40  1  0
 10 41  1  0
 11 42  1  0
 11 43  1  0
 12 44  1  0
 12 45  1  0
 13 46  1  0
 14 47  1  0
 14 48  1  0
 14 49  1  0
 15 50  1  0
 15 51  1  0
 17 52  1  0
 17 53  1  0
 18 54  1  0
 18 55  1  0
 20 56  1  0
 21 57  1  0
 25 58  1  0
 25 59  1  0
M  END
