
     RDKit          2D

 51 55  0  0  0  0  0  0  0  0999 V2000
   15.5288  -22.2438  -12.7989 C   0  0  0  0  0  0  0  0  0  0  0  0
   16.2889  -21.6624  -11.6438 C   0  0  0  0  0  0  0  0  0  0  0  0
   16.1875  -22.2923  -10.2862 C   0  0  0  0  0  0  0  0  0  0  0  0
   16.9476  -21.7109   -9.1311 C   0  0  0  0  0  0  0  0  0  0  0  0
   15.3260  -23.5034  -10.0837 C   0  0  0  0  0  0  0  0  0  0  0  0
   14.4645  -24.7145   -9.8813 C   0  0  0  0  0  0  0  0  0  0  0  0
   14.8602  -24.7542   -8.4349 C   0  0  0  0  0  0  0  0  0  0  0  0
   15.7217  -23.5431   -8.6374 C   0  0  0  0  0  0  0  0  0  0  0  0
   16.1174  -23.5828   -7.1911 C   0  0  0  0  0  0  0  0  0  0  0  0
   16.2582  -23.8025   -5.7140 C   0  0  0  0  0  0  0  0  0  0  0  0
   15.0095  -24.6177   -5.8754 C   0  0  0  0  0  0  0  0  0  0  0  0
   17.4818  -23.0689   -5.2509 C   0  0  0  0  0  0  0  0  0  0  0  0
   18.0973  -22.3958   -6.4417 C   0  0  0  0  0  0  0  0  0  0  0  0
   18.4734  -21.8523   -7.7882 C   0  0  0  0  0  0  0  0  0  0  0  0
   18.4195  -21.5743   -9.2612 C   0  0  0  0  0  0  0  0  0  0  0  0
   18.3655  -21.2964  -10.7342 C   0  0  0  0  0  0  0  0  0  0  0  0
   18.7416  -20.7529  -12.0808 C   0  0  0  0  0  0  0  0  0  0  0  0
   19.5849  -20.4353  -10.8816 C   0  0  0  0  0  0  0  0  0  0  0  0
   20.8042  -19.5742  -11.0290 C   0  0  0  0  0  0  0  0  0  0  0  0
   20.4281  -20.1177   -9.6825 C   0  0  0  0  0  0  0  0  0  0  0  0
   17.2540  -22.7134   -7.6408 C   0  0  0  0  0  0  0  0  0  0  0  0
   15.6302  -21.6139  -14.1566 H   0  0  0  0  0  0  0  0  0  0  0  0
   14.6672  -23.4549  -12.5965 H   0  0  0  0  0  0  0  0  0  0  0  0
   17.0976  -20.4570  -12.0216 H   0  0  0  0  0  0  0  0  0  0  0  0
   17.3429  -21.0829   -9.4221 H   0  0  0  0  0  0  0  0  0  0  0  0
   17.0758  -22.0716   -7.6808 H   0  0  0  0  0  0  0  0  0  0  0  0
   14.9302  -23.4637  -11.5301 H   0  0  0  0  0  0  0  0  0  0  0  0
   14.0687  -24.6748  -11.3276 H   0  0  0  0  0  0  0  0  0  0  0  0
   13.6029  -25.9256   -9.6788 H   0  0  0  0  0  0  0  0  0  0  0  0
   13.9987  -25.9654   -8.2325 H   0  0  0  0  0  0  0  0  0  0  0  0
   15.1479  -24.9412   -6.9748 H   0  0  0  0  0  0  0  0  0  0  0  0
   14.9816  -24.7278   -8.0910 H   0  0  0  0  0  0  0  0  0  0  0  0
   14.9401  -24.4534   -6.8657 H   0  0  0  0  0  0  0  0  0  0  0  0
   16.1380  -24.1926   -4.2707 H   0  0  0  0  0  0  0  0  0  0  0  0
   13.7606  -25.4329   -6.0369 H   0  0  0  0  0  0  0  0  0  0  0  0
   14.8667  -25.0202   -4.4376 H   0  0  0  0  0  0  0  0  0  0  0  0
   15.1711  -24.8214   -4.3981 H   0  0  0  0  0  0  0  0  0  0  0  0
   17.1058  -23.6124   -3.9043 H   0  0  0  0  0  0  0  0  0  0  0  0
   18.6268  -22.4490   -4.5061 H   0  0  0  0  0  0  0  0  0  0  0  0
   19.2423  -21.7759   -5.6970 H   0  0  0  0  0  0  0  0  0  0  0  0
   19.7114  -21.0878   -7.4240 H   0  0  0  0  0  0  0  0  0  0  0  0
   19.6638  -20.7882   -8.9722 H   0  0  0  0  0  0  0  0  0  0  0  0
   17.1882  -22.4283   -9.1912 H   0  0  0  0  0  0  0  0  0  0  0  0
   17.2038  -21.9373  -11.4341 H   0  0  0  0  0  0  0  0  0  0  0  0
   17.7128  -21.2447  -13.0552 H   0  0  0  0  0  0  0  0  0  0  0  0
   19.5023  -20.0094  -13.1385 H   0  0  0  0  0  0  0  0  0  0  0  0
   20.7503  -19.2962  -12.5020 H   0  0  0  0  0  0  0  0  0  0  0  0
   22.0423  -18.8096  -10.6648 H   0  0  0  0  0  0  0  0  0  0  0  0
   21.5356  -19.5419   -8.8506 H   0  0  0  0  0  0  0  0  0  0  0  0
   19.7939  -20.8003   -8.5070 H   0  0  0  0  0  0  0  0  0  0  0  0
   16.4600  -22.9882   -8.8835 H   0  0  0  0  0  0  0  0  0  0  0  0
  1  2  2  3
  2  3  1  0
  3  4  2  3
  3  5  1  0
  5  6  1  0
  6  7  1  0
  7  8  1  0
  8  9  1  0
  9 10  1  0
 10 11  1  0
 10 12  1  0
 12 13  1  0
 13 14  1  0
 14 15  1  0
 15 16  1  0
 16 17  1  0
 17 18  1  0
 18 19  1  0
 19 20  1  0
 14 21  1  0
  8  5  1  0
 21  9  1  0
 21 13  1  0
 18 16  1  0
 20 18  1  0
  1 22  1  0
  1 23  1  0
  2 24  1  0
  4 25  1  0
  4 26  1  0
  5 27  1  0
  6 28  1  0
  6 29  1  0
  7 30  1  0
  7 31  1  0
  8 32  1  0
  9 33  1  0
 10 34  1  0
 11 35  1  0
 11 36  1  0
 11 37  1  0
 12 38  1  0
 12 39  1  0
 13 40  1  0
 14 41  1  0
 15 42  1  0
 15 43  1  0
 16 44  1  0
 17 45  1  0
 17 46  1  0
 19 47  1  0
 19 48  1  0
 20 49  1  0
 20 50  1  0
 21 51  1  0
M  END
