
     RDKit          2D

 26 26  0  0  0  0  0  0  0  0999 V2000
    2.4220   25.9737    7.2196 C   0  0  0  0  0  0  0  0  0  0  0  0
    3.2138   24.8599    6.6012 C   0  0  0  0  0  0  0  0  0  0  0  0
    4.0056   23.7460    5.9828 C   0  0  0  0  0  0  0  0  0  0  0  0
    2.2710   24.8372    5.4347 C   0  0  0  0  0  0  0  0  0  0  0  0
    1.3282   24.8146    4.2683 C   0  0  0  0  0  0  0  0  0  0  0  0
    1.9457   23.7154    3.4556 N   0  0  0  0  0  0  0  0  0  0  0  0
    0.7136   24.4130    2.9603 C   0  0  0  0  0  0  0  0  0  0  0  0
   -0.4448   25.3647    2.9136 C   0  0  0  0  0  0  0  0  0  0  0  0
   -1.6033   26.3165    2.8669 C   0  0  0  0  0  0  0  0  0  0  0  0
   -2.5460   26.2939    1.7006 O   0  0  0  0  0  0  0  0  0  0  0  0
   -1.8189   27.2910    3.9868 O   0  0  0  0  0  0  0  0  0  0  0  0
    1.6302   27.0876    7.8379 H   0  0  0  0  0  0  0  0  0  0  0  0
    3.3648   25.9964    8.3860 H   0  0  0  0  0  0  0  0  0  0  0  0
    1.8125   26.0407    6.5804 H   0  0  0  0  0  0  0  0  0  0  0  0
    4.1566   24.8826    7.7677 H   0  0  0  0  0  0  0  0  0  0  0  0
    4.7974   22.6322    5.3645 H   0  0  0  0  0  0  0  0  0  0  0  0
    4.9508   23.7714    7.1473 H   0  0  0  0  0  0  0  0  0  0  0  0
    3.5087   23.6510    5.2558 H   0  0  0  0  0  0  0  0  0  0  0  0
    2.6681   24.1838    4.9877 H   0  0  0  0  0  0  0  0  0  0  0  0
    1.7383   25.4874    5.7139 H   0  0  0  0  0  0  0  0  0  0  0  0
    0.5708   25.8131    4.7702 H   0  0  0  0  0  0  0  0  0  0  0  0
    3.0136   22.6782    3.2723 H   0  0  0  0  0  0  0  0  0  0  0  0
    0.5012   23.6808    1.6685 H   0  0  0  0  0  0  0  0  0  0  0  0
   -0.1923   25.9887    4.0838 H   0  0  0  0  0  0  0  0  0  0  0  0
   -0.8698   24.7831    1.5979 H   0  0  0  0  0  0  0  0  0  0  0  0
   -2.9772   28.2428    3.9401 H   0  0  0  0  0  0  0  0  0  0  0  0
  1  2  1  0
  2  3  1  0
  2  4  1  0
  4  5  1  0
  5  6  1  0
  6  7  1  0
  7  8  1  0
  8  9  1  0
  9 10  2  0
  9 11  1  0
  7  5  1  0
  1 12  1  0
  1 13  1  0
  1 14  1  0
  2 15  1  0
  3 16  1  0
  3 17  1  0
  3 18  1  0
  4 19  1  0
  4 20  1  0
  5 21  1  0
  6 22  1  0
  7 23  1  0
  8 24  1  0
  8 25  1  0
 11 26  1  0
M  END
