
     RDKit          2D

106116  0  0  0  0  0  0  0  0999 V2000
   18.7226  -25.2660   -3.9544 C   0  0  0  0  0  0  0  0  0  0  0  0
   17.7456  -24.4597   -4.7577 C   0  0  0  0  0  0  0  0  0  0  0  0
   16.7686  -23.6534   -5.5611 C   0  0  0  0  0  0  0  0  0  0  0  0
   15.3885  -23.4015   -5.0303 C   0  0  0  0  0  0  0  0  0  0  0  0
   15.4751  -24.1315   -3.7227 C   0  0  0  0  0  0  0  0  0  0  0  0
   15.7916  -22.8471   -6.3644 C   0  0  0  0  0  0  0  0  0  0  0  0
   17.1717  -23.0990   -6.8953 C   0  0  0  0  0  0  0  0  0  0  0  0
   16.1947  -22.2927   -7.6987 C   0  0  0  0  0  0  0  0  0  0  0  0
   17.2243  -22.1181   -8.7755 C   0  0  0  0  0  0  0  0  0  0  0  0
   16.8930  -21.3325  -10.0096 C   0  0  0  0  0  0  0  0  0  0  0  0
   15.5321  -20.7216  -10.1670 C   0  0  0  0  0  0  0  0  0  0  0  0
   15.9351  -20.1672  -11.5012 C   0  0  0  0  0  0  0  0  0  0  0  0
   17.2961  -20.7781  -11.3438 C   0  0  0  0  0  0  0  0  0  0  0  0
   18.7149  -21.1878  -11.6065 C   0  0  0  0  0  0  0  0  0  0  0  0
   20.0950  -21.4397  -12.1373 C   0  0  0  0  0  0  0  0  0  0  0  0
   21.2786  -21.4076  -13.0583 C   0  0  0  0  0  0  0  0  0  0  0  0
   20.0084  -20.7098  -13.4449 C   0  0  0  0  0  0  0  0  0  0  0  0
   20.4115  -20.1554  -14.7791 C   0  0  0  0  0  0  0  0  0  0  0  0
   20.8146  -19.6010  -16.1133 C   0  0  0  0  0  0  0  0  0  0  0  0
   21.6589  -19.2889  -17.3133 C   0  0  0  0  0  0  0  0  0  0  0  0
   22.2249  -20.1063  -16.1901 C   0  0  0  0  0  0  0  0  0  0  0  0
   23.6050  -20.3582  -16.7209 C   0  0  0  0  0  0  0  0  0  0  0  0
   24.9852  -20.6101  -17.2518 C   0  0  0  0  0  0  0  0  0  0  0  0
   26.3653  -20.8619  -17.7826 C   0  0  0  0  0  0  0  0  0  0  0  0
   27.7755  -21.3672  -17.8592 C   0  0  0  0  0  0  0  0  0  0  0  0
   26.9313  -21.6790  -16.6592 C   0  0  0  0  0  0  0  0  0  0  0  0
   19.1887  -21.9954  -10.4346 C   0  0  0  0  0  0  0  0  0  0  0  0
   20.5000  -22.6609  -10.1387 C   0  0  0  0  0  0  0  0  0  0  0  0
   20.6852  -23.4159   -8.8558 C   0  0  0  0  0  0  0  0  0  0  0  0
   19.5591  -23.5053   -7.8689 C   0  0  0  0  0  0  0  0  0  0  0  0
   18.2479  -22.8398   -8.1648 C   0  0  0  0  0  0  0  0  0  0  0  0
   18.6252  -23.0625   -8.0211 C   0  0  0  0  0  0  0  0  0  0  0  0
   18.3822  -22.9557   -8.0447 C   0  0  0  0  0  0  0  0  0  0  0  0
   19.3569  -23.4504   -7.8248 C   0  0  0  0  0  0  0  0  0  0  0  0
   19.1375  -23.3225   -7.9054 C   0  0  0  0  0  0  0  0  0  0  0  0
   21.0981  -24.4567   -7.2017 C   0  0  0  0  0  0  0  0  0  0  0  0
   20.3998  -25.0834   -5.5170 C   0  0  0  0  0  0  0  0  0  0  0  0
   21.0552  -25.9066   -4.4480 C   0  0  0  0  0  0  0  0  0  0  0  0
   19.1408  -25.0291   -4.7033 C   0  0  0  0  0  0  0  0  0  0  0  0
   21.6588  -25.1378   -6.3306 O   0  0  0  0  0  0  0  0  0  0  0  0
   18.0626  -22.0848   -9.4477 C   0  0  0  0  0  0  0  0  0  0  0  0
   14.5025  -20.8962   -9.0902 C   0  0  0  0  0  0  0  0  0  0  0  0
   13.2008  -20.7846   -8.3530 C   0  0  0  0  0  0  0  0  0  0  0  0
   14.8339  -21.6818   -7.8560 O   0  0  0  0  0  0  0  0  0  0  0  0
   19.3956  -26.2010   -2.9938 H   0  0  0  0  0  0  0  0  0  0  0  0
   17.5862  -25.8972   -3.2059 H   0  0  0  0  0  0  0  0  0  0  0  0
   19.5887  -24.4583   -4.8750 H   0  0  0  0  0  0  0  0  0  0  0  0
   19.0862  -24.0002   -5.2492 H   0  0  0  0  0  0  0  0  0  0  0  0
   16.7351  -25.2276   -3.9582 H   0  0  0  0  0  0  0  0  0  0  0  0
   13.9782  -22.8962   -4.9535 H   0  0  0  0  0  0  0  0  0  0  0  0
   15.5617  -24.8614   -2.4151 H   0  0  0  0  0  0  0  0  0  0  0  0
   14.0563  -23.7526   -3.4171 H   0  0  0  0  0  0  0  0  0  0  0  0
   16.8939  -24.5965   -3.8666 H   0  0  0  0  0  0  0  0  0  0  0  0
   18.5820  -23.4448   -7.2718 H   0  0  0  0  0  0  0  0  0  0  0  0
   18.6242  -22.4242   -9.2189 H   0  0  0  0  0  0  0  0  0  0  0  0
   17.8575  -22.9402   -7.6924 H   0  0  0  0  0  0  0  0  0  0  0  0
   14.4212  -19.9475  -10.8126 H   0  0  0  0  0  0  0  0  0  0  0  0
   16.3382  -19.6128  -12.8354 H   0  0  0  0  0  0  0  0  0  0  0  0
   14.5743  -19.5563  -11.6585 H   0  0  0  0  0  0  0  0  0  0  0  0
   17.4813  -20.1350  -12.6862 H   0  0  0  0  0  0  0  0  0  0  0  0
   18.3595  -20.3979  -12.8312 H   0  0  0  0  0  0  0  0  0  0  0  0
   20.9591  -22.2597  -11.2259 H   0  0  0  0  0  0  0  0  0  0  0  0
   22.2556  -22.2139  -12.2550 H   0  0  0  0  0  0  0  0  0  0  0  0
   22.3738  -21.2897  -14.0764 H   0  0  0  0  0  0  0  0  0  0  0  0
   18.6283  -20.1287  -13.5322 H   0  0  0  0  0  0  0  0  0  0  0  0
   19.0512  -19.5432  -14.9358 H   0  0  0  0  0  0  0  0  0  0  0  0
   21.7719  -20.7675  -14.6225 H   0  0  0  0  0  0  0  0  0  0  0  0
   19.5445  -18.9031  -16.5000 H   0  0  0  0  0  0  0  0  0  0  0  0
   20.6819  -18.4827  -18.1166 H   0  0  0  0  0  0  0  0  0  0  0  0
   22.7382  -19.1567  -18.3466 H   0  0  0  0  0  0  0  0  0  0  0  0
   22.6517  -20.9076  -14.9960 H   0  0  0  0  0  0  0  0  0  0  0  0
   23.9356  -21.1455  -15.4877 H   0  0  0  0  0  0  0  0  0  0  0  0
   23.4450  -19.6075  -18.0097 H   0  0  0  0  0  0  0  0  0  0  0  0
   25.3190  -21.3890  -16.0142 H   0  0  0  0  0  0  0  0  0  0  0  0
   24.4855  -19.8062  -18.4155 H   0  0  0  0  0  0  0  0  0  0  0  0
   26.2785  -20.1324  -19.0903 H   0  0  0  0  0  0  0  0  0  0  0  0
   28.1785  -20.8131  -19.1936 H   0  0  0  0  0  0  0  0  0  0  0  0
   29.0458  -22.0649  -17.4725 H   0  0  0  0  0  0  0  0  0  0  0  0
   27.9084  -22.4850  -15.8557 H   0  0  0  0  0  0  0  0  0  0  0  0
   25.8521  -21.8111  -15.6259 H   0  0  0  0  0  0  0  0  0  0  0  0
   20.4240  -22.0210  -11.2850 H   0  0  0  0  0  0  0  0  0  0  0  0
   21.9180  -23.1196  -10.3088 H   0  0  0  0  0  0  0  0  0  0  0  0
   21.1334  -22.2210  -11.4253 H   0  0  0  0  0  0  0  0  0  0  0  0
   21.7483  -24.2038   -8.1495 H   0  0  0  0  0  0  0  0  0  0  0  0
   22.0389  -23.6123   -9.4714 H   0  0  0  0  0  0  0  0  0  0  0  0
   20.9269  -24.1065   -7.7349 H   0  0  0  0  0  0  0  0  0  0  0  0
   19.3739  -22.7504   -9.1517 H   0  0  0  0  0  0  0  0  0  0  0  0
   15.9117  -22.9325   -6.2916 H   0  0  0  0  0  0  0  0  0  0  0  0
   16.1813  -22.1173   -8.0183 H   0  0  0  0  0  0  0  0  0  0  0  0
   16.1810  -23.7736   -4.9081 H   0  0  0  0  0  0  0  0  0  0  0  0
   18.8037  -25.1046   -4.3162 H   0  0  0  0  0  0  0  0  0  0  0  0
   21.4478  -25.2456   -5.9748 H   0  0  0  0  0  0  0  0  0  0  0  0
   22.5174  -24.8818   -7.4357 H   0  0  0  0  0  0  0  0  0  0  0  0
   19.8480  -24.4134   -6.3740 H   0  0  0  0  0  0  0  0  0  0  0  0
   21.7106  -26.7298   -3.3789 H   0  0  0  0  0  0  0  0  0  0  0  0
   22.4321  -26.1669   -4.9832 H   0  0  0  0  0  0  0  0  0  0  0  0
   22.3108  -25.9696   -5.2661 H   0  0  0  0  0  0  0  0  0  0  0  0
   17.8818  -24.9748   -3.8897 H   0  0  0  0  0  0  0  0  0  0  0  0
   19.7965  -25.8516   -3.6340 H   0  0  0  0  0  0  0  0  0  0  0  0
   20.0817  -25.8403   -3.8626 H   0  0  0  0  0  0  0  0  0  0  0  0
   23.0051  -25.7669   -6.1265 H   0  0  0  0  0  0  0  0  0  0  0  0
   18.3213  -21.4696  -10.7910 H   0  0  0  0  0  0  0  0  0  0  0  0
   13.5807  -20.0820   -9.9487 H   0  0  0  0  0  0  0  0  0  0  0  0
   11.8993  -20.6730   -7.6159 H   0  0  0  0  0  0  0  0  0  0  0  0
   12.6386  -19.9577   -9.4710 H   0  0  0  0  0  0  0  0  0  0  0  0
   13.7631  -21.6116   -7.2350 H   0  0  0  0  0  0  0  0  0  0  0  0
  1  2  1  0
  2  3  1  0
  3  4  1  0
  4  5  1  0
  4  6  1  0
  6  7  1  0
  7  8  1  0
  8  9  1  0
  9 10  1  0
 10 11  1  0
 11 12  1  0
 12 13  1  0
 13 14  1  0
 14 15  1  0
 15 16  1  0
 16 17  1  0
 17 18  1  0
 18 19  1  0
 19 20  1  0
 20 21  1  0
 21 22  1  0
 22 23  1  0
 23 24  1  0
 24 25  1  0
 25 26  1  0
 14 27  1  0
 27 28  1  0
 28 29  1  0
 29 30  1  0
 30 31  1  0
 31 32  1  0
 32 33  1  0
 33 34  2  0
 34 35  1  0
 35 36  1  0
 35 37  1  0
 37 38  1  0
 37 39  1  0
 37 40  1  0
 31 41  1  0
 11 42  1  0
 42 43  1  0
 42 44  1  0
  6  3  1  0
 44  8  1  0
  7  3  1  0
 13 10  1  0
 17 15  1  0
 21 19  1  0
 26 24  1  0
 41 27  1  0
  8  6  1  0
 41 10  1  0
 35 30  1  0
  1 45  1  0
  1 46  1  0
  1 47  1  0
  2 48  1  0
  2 49  1  0
  4 50  1  0
  5 51  1  0
  5 52  1  0
  5 53  1  0
  7 54  1  0
  9 55  1  0
  9 56  1  0
 11 57  1  0
 12 58  1  0
 12 59  1  0
 13 60  1  0
 14 61  1  0
 15 62  1  0
 16 63  1  0
 16 64  1  0
 17 65  1  0
 18 66  1  0
 18 67  1  0
 19 68  1  0
 20 69  1  0
 20 70  1  0
 21 71  1  0
 22 72  1  0
 22 73  1  0
 23 74  1  0
 23 75  1  0
 24 76  1  0
 25 77  1  0
 25 78  1  0
 26 79  1  0
 26 80  1  0
 27 81  1  0
 28 82  1  0
 28 83  1  0
 29 84  1  0
 29 85  1  0
 30 86  1  0
 31 87  1  0
 32 88  1  0
 32 89  1  0
 33 90  1  0
 34 91  1  0
 36 92  1  0
 36 93  1  0
 36 94  1  0
 38 95  1  0
 38 96  1  0
 38 97  1  0
 39 98  1  0
 39 99  1  0
 39100  1  0
 40101  1  0
 41102  1  0
 42103  1  0
 43104  1  0
 43105  1  0
 43106  1  0
M  END
