
     RDKit          2D

 59 65  0  0  0  0  0  0  0  0999 V2000
   16.7040  -15.5339  -15.7523 C   0  0  0  0  0  0  0  0  0  0  0  0
   16.6981  -17.0288  -15.6296 C   0  0  0  0  0  0  0  0  0  0  0  0
   16.6521  -17.4874  -14.2022 C   0  0  0  0  0  0  0  0  0  0  0  0
   16.6517  -15.9892  -14.1288 C   0  0  0  0  0  0  0  0  0  0  0  0
   16.6285  -18.8216  -13.5169 C   0  0  0  0  0  0  0  0  0  0  0  0
   16.6413  -20.2497  -13.9753 C   0  0  0  0  0  0  0  0  0  0  0  0
   16.6829  -20.9353  -15.3089 C   0  0  0  0  0  0  0  0  0  0  0  0
   16.6494  -22.0465  -14.3018 C   0  0  0  0  0  0  0  0  0  0  0  0
   16.7289  -20.4767  -16.7363 C   0  0  0  0  0  0  0  0  0  0  0  0
   16.7525  -19.1427  -17.4215 C   0  0  0  0  0  0  0  0  0  0  0  0
   16.7397  -17.7145  -16.9631 C   0  0  0  0  0  0  0  0  0  0  0  0
   16.7875  -17.6411  -18.4605 C   0  0  0  0  0  0  0  0  0  0  0  0
   16.2638  -16.2365  -18.4084 C   0  0  0  0  0  0  0  0  0  0  0  0
   16.3116  -16.1632  -19.9059 C   0  0  0  0  0  0  0  0  0  0  0  0
   16.6148  -16.8020  -21.2288 B   0  0  0  0  0  0  0  0  0  0  0  0
   17.0923  -17.9818  -22.0226 C   0  0  0  0  0  0  0  0  0  0  0  0
   17.5697  -19.1616  -22.8163 C   0  0  0  0  0  0  0  0  0  0  0  0
   18.0471  -20.3415  -23.6102 O   0  0  0  0  0  0  0  0  0  0  0  0
   17.3127  -18.7476  -20.7517 C   0  0  0  0  0  0  0  0  0  0  0  0
   16.8353  -17.5678  -19.9580 C   0  0  0  0  0  0  0  0  0  0  0  0
   16.5952  -20.7083  -12.5479 C   0  0  0  0  0  0  0  0  0  0  0  0
   16.5832  -22.1744  -12.2312 O   0  0  0  0  0  0  0  0  0  0  0  0
   16.5492  -21.1669  -11.1205 C   0  0  0  0  0  0  0  0  0  0  0  0
   16.5364  -19.7387  -10.6621 C   0  0  0  0  0  0  0  0  0  0  0  0
   16.5237  -18.3105  -10.2037 C   0  0  0  0  0  0  0  0  0  0  0  0
   16.5825  -19.2801  -12.0895 C   0  0  0  0  0  0  0  0  0  0  0  0
   16.7480  -14.8928  -17.1078 H   0  0  0  0  0  0  0  0  0  0  0  0
   16.6761  -14.7256  -14.8456 H   0  0  0  0  0  0  0  0  0  0  0  0
   16.6121  -17.0434  -12.9278 H   0  0  0  0  0  0  0  0  0  0  0  0
   16.6466  -14.7920  -13.9221 H   0  0  0  0  0  0  0  0  0  0  0  0
   16.6039  -16.0625  -12.6314 H   0  0  0  0  0  0  0  0  0  0  0  0
   16.6790  -15.7331  -14.9763 H   0  0  0  0  0  0  0  0  0  0  0  0
   16.5981  -17.9061  -12.5252 H   0  0  0  0  0  0  0  0  0  0  0  0
   16.6312  -21.0887  -13.6915 H   0  0  0  0  0  0  0  0  0  0  0  0
   16.7019  -22.2859  -15.9614 H   0  0  0  0  0  0  0  0  0  0  0  0
   16.6158  -23.1578  -13.2948 H   0  0  0  0  0  0  0  0  0  0  0  0
   16.6831  -23.0542  -15.4125 H   0  0  0  0  0  0  0  0  0  0  0  0
   16.6276  -21.6699  -13.5996 H   0  0  0  0  0  0  0  0  0  0  0  0
   16.7351  -21.9549  -16.9916 H   0  0  0  0  0  0  0  0  0  0  0  0
   16.7734  -20.9701  -18.1521 H   0  0  0  0  0  0  0  0  0  0  0  0
   16.7904  -20.0072  -18.6467 H   0  0  0  0  0  0  0  0  0  0  0  0
   16.7996  -18.8360  -18.8891 H   0  0  0  0  0  0  0  0  0  0  0  0
   16.7460  -16.2206  -17.0988 H   0  0  0  0  0  0  0  0  0  0  0  0
   17.3131  -19.0264  -18.6947 H   0  0  0  0  0  0  0  0  0  0  0  0
   15.7401  -14.8318  -18.3564 H   0  0  0  0  0  0  0  0  0  0  0  0
   16.1526  -16.1380  -16.9159 H   0  0  0  0  0  0  0  0  0  0  0  0
   15.8181  -14.7874  -20.2432 H   0  0  0  0  0  0  0  0  0  0  0  0
   16.8718  -17.2160  -23.2934 H   0  0  0  0  0  0  0  0  0  0  0  0
   16.6766  -18.7589  -23.9522 H   0  0  0  0  0  0  0  0  0  0  0  0
   18.5143  -19.7052  -21.7858 H   0  0  0  0  0  0  0  0  0  0  0  0
   19.0588  -21.2805  -23.0232 H   0  0  0  0  0  0  0  0  0  0  0  0
   17.5332  -19.5135  -19.4810 H   0  0  0  0  0  0  0  0  0  0  0  0
   17.8134  -20.0120  -21.3847 H   0  0  0  0  0  0  0  0  0  0  0  0
   16.5080  -21.9795   -9.8603 H   0  0  0  0  0  0  0  0  0  0  0  0
   16.4904  -20.1973   -9.2346 H   0  0  0  0  0  0  0  0  0  0  0  0
   16.5109  -16.8824   -9.7453 H   0  0  0  0  0  0  0  0  0  0  0  0
   17.4897  -18.6534   -9.1086 H   0  0  0  0  0  0  0  0  0  0  0  0
   15.5633  -17.7961  -11.2346 H   0  0  0  0  0  0  0  0  0  0  0  0
   16.5754  -17.8067  -11.8085 H   0  0  0  0  0  0  0  0  0  0  0  0
  1  2  2  3
  2  3  1  0
  3  4  1  0
  3  5  1  0
  5  6  1  0
  6  7  1  0
  7  8  1  0
  7  9  1  0
  9 10  1  0
 10 11  1  0
 11 12  1  0
 12 13  1  0
 13 14  1  0
 14 15  1  0
 15 16  1  0
 16 17  1  0
 17 18  1  0
 16 19  1  0
 19 20  1  0
  6 21  1  0
 21 22  1  0
 22 23  1  0
 23 24  1  0
 24 25  1  0
 24 26  1  0
 11  2  1  0
 20 12  1  0
 23 21  1  0
 26  5  1  0
 20 14  1  0
 26 21  1  0
 20 15  1  0
  1 27  1  0
  1 28  1  0
  3 29  1  0
  4 30  1  0
  4 31  1  0
  4 32  1  0
  5 33  1  0
  6 34  1  0
  7 35  1  0
  8 36  1  0
  8 37  1  0
  8 38  1  0
  9 39  1  0
  9 40  1  0
 10 41  1  0
 10 42  1  0
 11 43  1  0
 12 44  1  0
 13 45  1  0
 13 46  1  0
 14 47  1  0
 16 48  1  0
 17 49  1  0
 17 50  1  0
 18 51  1  0
 19 52  1  0
 19 53  1  0
 23 54  1  0
 24 55  1  0
 25 56  1  0
 25 57  1  0
 25 58  1  0
 26 59  1  0
M  END
