
     RDKit          2D

 44 46  0  0  0  0  0  0  0  0999 V2000
   -3.7068   23.9345    9.8217 C   0  0  0  0  0  0  0  0  0  0  0  0
   -2.9911   24.7678    8.8003 C   0  0  0  0  0  0  0  0  0  0  0  0
   -2.2755   25.6012    7.7789 C   0  0  0  0  0  0  0  0  0  0  0  0
   -1.5598   26.4346    6.7574 C   0  0  0  0  0  0  0  0  0  0  0  0
   -0.8442   27.2679    5.7360 C   0  0  0  0  0  0  0  0  0  0  0  0
   -2.2126   27.8128    5.4520 C   0  0  0  0  0  0  0  0  0  0  0  0
   -2.0879   28.8326    4.3591 C   0  0  0  0  0  0  0  0  0  0  0  0
   -3.2114   29.6273    3.7624 C   0  0  0  0  0  0  0  0  0  0  0  0
   -4.5991   30.1406    3.5155 C   0  0  0  0  0  0  0  0  0  0  0  0
   -4.3622   29.0927    4.5623 O   0  0  0  0  0  0  0  0  0  0  0  0
   -0.6424   28.9180    3.9676 C   0  0  0  0  0  0  0  0  0  0  0  0
   -0.2878   29.8874    2.8793 N   0  0  0  0  0  0  0  0  0  0  0  0
    0.9823   30.2914    2.1911 C   0  0  0  0  0  0  0  0  0  0  0  0
    2.4240   29.8934    2.3063 C   0  0  0  0  0  0  0  0  0  0  0  0
    3.3032   30.6367    1.3448 C   0  0  0  0  0  0  0  0  0  0  0  0
    2.7069   31.6482    0.4113 O   0  0  0  0  0  0  0  0  0  0  0  0
    3.1926   28.9265    3.1572 N   0  0  0  0  0  2  0  0  0  0  0  0
    2.8380   27.9570    4.2456 C   0  0  0  0  0  0  0  0  0  0  0  0
    3.2517   26.9184    5.2456 O   0  0  0  0  0  0  0  0  0  0  0  0
    1.5678   27.5529    4.9337 N   0  0  0  0  0  2  0  0  0  0  0  0
    0.1262   27.9510    4.8186 C   0  0  0  0  0  0  0  0  0  0  0  0
   -4.4225   23.1011   10.8432 H   0  0  0  0  0  0  0  0  0  0  0  0
   -5.0085   24.5648    9.4239 H   0  0  0  0  0  0  0  0  0  0  0  0
   -2.4051   23.3042   10.2195 H   0  0  0  0  0  0  0  0  0  0  0  0
   -3.2580   23.7213    7.7594 H   0  0  0  0  0  0  0  0  0  0  0  0
   -2.7242   25.8144    9.8412 H   0  0  0  0  0  0  0  0  0  0  0  0
   -1.3807   24.4406    7.4589 H   0  0  0  0  0  0  0  0  0  0  0  0
   -3.1703   26.7618    8.0988 H   0  0  0  0  0  0  0  0  0  0  0  0
   -2.2887   26.4974    6.4407 H   0  0  0  0  0  0  0  0  0  0  0  0
   -0.2660   26.2132    7.4833 H   0  0  0  0  0  0  0  0  0  0  0  0
    0.2621   26.4614    6.3486 H   0  0  0  0  0  0  0  0  0  0  0  0
   -3.6708   28.1596    5.3940 H   0  0  0  0  0  0  0  0  0  0  0  0
   -2.5313   27.3422    6.0110 H   0  0  0  0  0  0  0  0  0  0  0  0
   -2.4508   30.4380    2.7553 H   0  0  0  0  0  0  0  0  0  0  0  0
   -4.3204   31.1295    2.4227 H   0  0  0  0  0  0  0  0  0  0  0  0
   -6.0836   30.3104    3.6482 H   0  0  0  0  0  0  0  0  0  0  0  0
   -1.4840   30.6262    2.3564 H   0  0  0  0  0  0  0  0  0  0  0  0
    1.6980   31.1248    1.1697 H   0  0  0  0  0  0  0  0  0  0  0  0
   -0.0889   31.1209    1.5473 H   0  0  0  0  0  0  0  0  0  0  0  0
    4.7789   30.3686    1.3169 H   0  0  0  0  0  0  0  0  0  0  0  0
    1.2313   31.9162    0.4393 H   0  0  0  0  0  0  0  0  0  0  0  0
    4.3222   27.8234    4.0751 H   0  0  0  0  0  0  0  0  0  0  0  0
    4.6933   26.5203    5.3608 H   0  0  0  0  0  0  0  0  0  0  0  0
    0.7462   26.9445    5.7420 H   0  0  0  0  0  0  0  0  0  0  0  0
  1  2  1  0
  2  3  1  0
  3  4  1  0
  4  5  1  0
  5  6  1  0
  6  7  1  0
  7  8  1  0
  8  9  1  0
  9 10  1  0
  7 11  2  0
 11 12  1  0
 12 13  1  0
 13 14  1  0
 14 15  2  3
 15 16  1  0
 14 17  1  0
 17 18  1  0
 18 19  1  0
 18 20  1  0
 20 21  1  0
 21  5  1  0
 10  8  1  0
 21 11  1  0
  1 22  1  0
  1 23  1  0
  1 24  1  0
  2 25  1  0
  2 26  1  0
  3 27  1  0
  3 28  1  0
  4 29  1  0
  4 30  1  0
  5 31  1  1
  6 32  1  0
  6 33  1  0
  8 34  1  6
  9 35  1  0
  9 36  1  0
 12 37  1  0
 13 38  1  0
 13 39  1  0
 15 40  1  0
 16 41  1  0
 18 42  1  6
 19 43  1  0
 21 44  1  6
M  RAD  2  17   2  20   2
M  END
