
     RDKit          2D

 77 82  0  0  0  0  0  0  0  0999 V2000
    8.7224   24.1690    4.5454 C   0  0  0  0  0  0  0  0  0  0  0  0
    7.3268   23.9453    4.0433 C   0  0  0  0  0  0  0  0  0  0  0  0
    5.9312   23.7216    3.5412 C   0  0  0  0  0  0  0  0  0  0  0  0
    4.5355   23.4979    3.0392 N   0  0  0  0  0  0  0  0  0  0  0  0
    3.6161   24.6652    2.8342 C   0  0  0  0  0  0  0  0  0  0  0  0
    2.6967   25.8325    2.6292 C   0  0  0  0  0  0  0  0  0  0  0  0
    1.7773   26.9999    2.4242 C   0  0  0  0  0  0  0  0  0  0  0  0
    0.8579   28.1672    2.2192 O   0  0  0  0  0  0  0  0  0  0  0  0
    1.9459   25.4596    3.8731 C   0  0  0  0  0  0  0  0  0  0  0  0
    1.1951   25.0868    5.1170 C   0  0  0  0  0  0  0  0  0  0  0  0
    0.4443   24.7139    6.3608 C   0  0  0  0  0  0  0  0  0  0  0  0
   -0.8049   25.3136    5.7866 C   0  0  0  0  0  0  0  0  0  0  0  0
   -1.5557   24.9407    7.0305 C   0  0  0  0  0  0  0  0  0  0  0  0
   -1.5813   24.3179    8.3948 C   0  0  0  0  0  0  0  0  0  0  0  0
   -3.0209   24.5377    8.7545 C   0  0  0  0  0  0  0  0  0  0  0  0
   -4.4604   24.7574    9.1142 C   0  0  0  0  0  0  0  0  0  0  0  0
   -5.9000   24.9772    9.4739 C   0  0  0  0  0  0  0  0  0  0  0  0
   -0.3065   24.3410    7.6047 C   0  0  0  0  0  0  0  0  0  0  0  0
   -0.0913   25.4972    4.4636 C   0  0  0  0  0  0  0  0  0  0  0  0
    0.4392   26.0793    3.1870 C   0  0  0  0  0  0  0  0  0  0  0  0
    0.4589   26.7338    1.8374 C   0  0  0  0  0  0  0  0  0  0  0  0
   -0.8472   26.4898    2.5336 C   0  0  0  0  0  0  0  0  0  0  0  0
   -1.0685   25.0576    5.5133 C   0  0  0  0  0  0  0  0  0  0  0  0
   -0.5751   24.4097    6.7730 C   0  0  0  0  0  0  0  0  0  0  0  0
   -0.0817   23.7618    8.0327 C   0  0  0  0  0  0  0  0  0  0  0  0
   -1.6597   23.6031    7.4232 F   0  0  0  0  0  0  0  0  0  0  0  0
   -2.5390   25.2659    5.3032 C   0  0  0  0  0  0  0  0  0  0  0  0
   -3.5162   24.8263    6.3529 C   0  0  0  0  0  0  0  0  0  0  0  0
   -3.0324   25.9137    4.0435 C   0  0  0  0  0  0  0  0  0  0  0  0
   -4.5097   25.8947    4.3022 C   0  0  0  0  0  0  0  0  0  0  0  0
   -1.5618   25.7055    4.2536 C   0  0  0  0  0  0  0  0  0  0  0  0
   10.1182   24.3927    5.0475 H   0  0  0  0  0  0  0  0  0  0  0  0
    8.2382   24.0209    5.9573 H   0  0  0  0  0  0  0  0  0  0  0  0
    9.2067   24.3171    3.1335 H   0  0  0  0  0  0  0  0  0  0  0  0
    7.7249   24.4787    2.6991 H   0  0  0  0  0  0  0  0  0  0  0  0
    6.9287   23.4119    5.3875 H   0  0  0  0  0  0  0  0  0  0  0  0
    6.4177   23.8568    2.1288 H   0  0  0  0  0  0  0  0  0  0  0  0
    5.4447   23.5864    4.9537 H   0  0  0  0  0  0  0  0  0  0  0  0
    4.0592   22.1069    2.7421 H   0  0  0  0  0  0  0  0  0  0  0  0
    3.8989   24.8666    1.3749 H   0  0  0  0  0  0  0  0  0  0  0  0
    4.1230   24.5821    1.4249 H   0  0  0  0  0  0  0  0  0  0  0  0
    3.4475   26.2054    1.3853 H   0  0  0  0  0  0  0  0  0  0  0  0
    0.7075   27.0328    3.4751 H   0  0  0  0  0  0  0  0  0  0  0  0
    2.6763   27.2675    1.2537 H   0  0  0  0  0  0  0  0  0  0  0  0
   -0.1307   28.8810    3.0927 H   0  0  0  0  0  0  0  0  0  0  0  0
    1.1058   26.6453    3.5009 H   0  0  0  0  0  0  0  0  0  0  0  0
    2.8845   24.3109    4.0953 H   0  0  0  0  0  0  0  0  0  0  0  0
    2.4814   24.6763    5.7703 H   0  0  0  0  0  0  0  0  0  0  0  0
    1.7757   24.1640    6.7791 H   0  0  0  0  0  0  0  0  0  0  0  0
   -2.1987   25.8054    5.5304 H   0  0  0  0  0  0  0  0  0  0  0  0
   -0.3788   25.8206    4.4408 H   0  0  0  0  0  0  0  0  0  0  0  0
   -2.9953   25.3572    6.9641 H   0  0  0  0  0  0  0  0  0  0  0  0
   -1.1069   23.6188    9.6343 H   0  0  0  0  0  0  0  0  0  0  0  0
   -2.7947   23.8605   10.0737 H   0  0  0  0  0  0  0  0  0  0  0  0
   -3.4209   25.2366    7.4890 H   0  0  0  0  0  0  0  0  0  0  0  0
   -4.2345   24.0795   10.4330 H   0  0  0  0  0  0  0  0  0  0  0  0
   -4.8603   25.4571    7.8491 H   0  0  0  0  0  0  0  0  0  0  0  0
   -7.3396   25.1969    9.8336 H   0  0  0  0  0  0  0  0  0  0  0  0
   -6.1326   25.6305    8.1438 H   0  0  0  0  0  0  0  0  0  0  0  0
   -5.6674   24.3238   10.8039 H   0  0  0  0  0  0  0  0  0  0  0  0
    0.7058   23.6651    8.4813 H   0  0  0  0  0  0  0  0  0  0  0  0
    1.9336   26.0292    3.0681 H   0  0  0  0  0  0  0  0  0  0  0  0
    1.7519   26.9886    1.1210 H   0  0  0  0  0  0  0  0  0  0  0  0
   -0.0344   27.3817    0.5778 H   0  0  0  0  0  0  0  0  0  0  0  0
   -1.7941   27.0529    1.5156 H   0  0  0  0  0  0  0  0  0  0  0  0
   -1.8243   26.0502    3.5833 H   0  0  0  0  0  0  0  0  0  0  0  0
    0.8555   24.8499    6.8713 H   0  0  0  0  0  0  0  0  0  0  0  0
    0.4117   23.1140    9.2923 H   0  0  0  0  0  0  0  0  0  0  0  0
   -1.3330   23.4826    8.8113 H   0  0  0  0  0  0  0  0  0  0  0  0
    1.3805   23.8082    7.7015 H   0  0  0  0  0  0  0  0  0  0  0  0
   -4.6238   24.4149    7.2771 H   0  0  0  0  0  0  0  0  0  0  0  0
   -4.7563   24.9759    5.5225 H   0  0  0  0  0  0  0  0  0  0  0  0
   -2.5142   24.5694    7.4394 H   0  0  0  0  0  0  0  0  0  0  0  0
   -3.0126   26.5682    2.6940 H   0  0  0  0  0  0  0  0  0  0  0  0
   -5.9871   25.8756    4.5609 H   0  0  0  0  0  0  0  0  0  0  0  0
   -4.7505   26.5523    2.9758 H   0  0  0  0  0  0  0  0  0  0  0  0
   -4.4509   25.2396    5.6504 H   0  0  0  0  0  0  0  0  0  0  0  0
  1  2  1  0
  2  3  1  0
  3  4  1  0
  4  5  1  0
  5  6  1  0
  6  7  1  0
  7  8  1  0
  6  9  1  0
  9 10  1  0
 10 11  1  0
 11 12  1  0
 12 13  1  0
 13 14  1  0
 14 15  1  0
 15 16  1  0
 16 17  1  0
 14 18  1  0
 10 19  1  0
 19 20  1  0
 20 21  1  0
 21 22  1  0
 19 23  1  0
 23 24  1  0
 24 25  1  0
 24 26  1  0
 23 27  1  0
 27 28  1  0
 27 29  1  0
 29 30  1  0
 29 31  1  0
 18 11  1  0
 31 19  1  0
 18 13  1  0
 22 20  1  0
 31 23  1  0
 31 27  1  0
  1 32  1  0
  1 33  1  0
  1 34  1  0
  2 35  1  0
  2 36  1  0
  3 37  1  0
  3 38  1  0
  4 39  1  0
  5 40  1  0
  5 41  1  0
  6 42  1  0
  7 43  1  0
  7 44  1  0
  8 45  1  0
  9 46  1  0
  9 47  1  0
 10 48  1  0
 11 49  1  0
 12 50  1  0
 12 51  1  0
 13 52  1  0
 14 53  1  0
 15 54  1  0
 15 55  1  0
 16 56  1  0
 16 57  1  0
 17 58  1  0
 17 59  1  0
 17 60  1  0
 18 61  1  0
 20 62  1  0
 21 63  1  0
 21 64  1  0
 22 65  1  0
 22 66  1  0
 24 67  1  0
 25 68  1  0
 25 69  1  0
 25 70  1  0
 28 71  1  0
 28 72  1  0
 28 73  1  0
 29 74  1  0
 30 75  1  0
 30 76  1  0
 30 77  1  0
M  END
