
     RDKit          2D

 23 23  0  0  0  0  0  0  0  0999 V2000
   15.4646  -16.7898   -3.1280 C   0  0  0  0  0  0  0  0  0  0  0  0
   14.5068  -17.6645   -3.8813 C   0  0  0  0  0  0  0  0  0  0  0  0
   13.5489  -18.5393   -4.6346 C   0  0  0  0  0  0  0  0  0  0  0  0
   13.2753  -17.4163   -5.5908 Br  0  0  0  0  0  0  0  0  0  0  0  0
   12.5911  -19.4139   -5.3879 C   0  0  0  0  0  0  0  0  0  0  0  0
   11.6333  -20.2887   -6.1412 C   0  0  0  0  0  0  0  0  0  0  0  0
   11.1969  -19.3344   -7.2131 F   0  0  0  0  0  0  0  0  0  0  0  0
   11.7371  -21.5468   -5.3310 C   0  0  0  0  0  0  0  0  0  0  0  0
   11.4957  -22.9568   -4.8801 F   0  0  0  0  0  0  0  0  0  0  0  0
   10.8271  -21.4948   -6.5222 C   0  0  0  0  0  0  0  0  0  0  0  0
   10.1106  -20.9594   -7.7264 O   0  0  0  0  0  0  0  0  0  0  0  0
   10.2696  -22.8868   -6.4850 O   0  0  0  0  0  0  0  0  0  0  0  0
   16.4224  -15.9151   -2.3748 H   0  0  0  0  0  0  0  0  0  0  0  0
   15.7350  -17.9114   -2.1695 H   0  0  0  0  0  0  0  0  0  0  0  0
   15.1942  -15.6682   -4.0866 H   0  0  0  0  0  0  0  0  0  0  0  0
   15.0727  -18.8735   -3.1971 H   0  0  0  0  0  0  0  0  0  0  0  0
   13.9408  -16.4555   -4.5656 H   0  0  0  0  0  0  0  0  0  0  0  0
   13.8226  -19.6621   -3.6785 H   0  0  0  0  0  0  0  0  0  0  0  0
   12.3161  -18.2904   -6.3430 H   0  0  0  0  0  0  0  0  0  0  0  0
   12.9418  -20.3216   -4.4522 H   0  0  0  0  0  0  0  0  0  0  0  0
   12.6172  -21.3042   -4.3364 H   0  0  0  0  0  0  0  0  0  0  0  0
   10.3518  -19.5494   -8.1774 H   0  0  0  0  0  0  0  0  0  0  0  0
    9.2758  -23.3246   -7.5197 H   0  0  0  0  0  0  0  0  0  0  0  0
  1  2  1  0
  2  3  1  0
  3  4  1  0
  3  5  1  0
  5  6  1  0
  6  7  1  0
  6  8  1  0
  8  9  1  0
  8 10  1  0
 10 11  1  0
 10 12  1  0
 10  6  1  0
  1 13  1  0
  1 14  1  0
  1 15  1  0
  2 16  1  0
  2 17  1  0
  3 18  1  0
  5 19  1  0
  5 20  1  0
  8 21  1  0
 11 22  1  0
 12 23  1  0
M  END
