
     RDKit          2D

 36 38  0  0  0  0  0  0  0  0999 V2000
    2.4432   21.8362    6.0312 C   0  0  0  0  0  0  0  0  0  0  0  0
    1.9455   23.2090    5.6878 C   0  0  0  0  0  0  0  0  0  0  0  0
    1.4479   24.5817    5.3444 C   0  0  0  0  0  0  0  0  0  0  0  0
    0.3154   25.5075    5.0122 C   0  0  0  0  0  0  0  0  0  0  0  0
    1.7184   26.0335    5.0817 C   0  0  0  0  0  0  0  0  0  0  0  0
    3.1581   25.6948    5.3325 C   0  0  0  0  0  0  0  0  0  0  0  0
    2.2041   27.4347    4.8564 C   0  0  0  0  0  0  0  0  0  0  0  0
    1.4068   28.6560    4.5061 C   0  0  0  0  0  0  0  0  0  0  0  0
   -0.0732   28.7777    4.2946 C   0  0  0  0  0  0  0  0  0  0  0  0
   -1.1214   27.7082    4.3811 C   0  0  0  0  0  0  0  0  0  0  0  0
   -0.9484   26.2528    4.7005 C   0  0  0  0  0  0  0  0  0  0  0  0
   -2.2056   25.4346    4.7092 N   0  0  0  0  0  0  0  0  0  0  0  0
   -3.5247   26.0831    4.4103 C   0  0  0  0  0  0  0  0  0  0  0  0
   -2.9233   27.4306    4.6798 N   0  0  0  0  0  2  0  0  0  0  0  0
   -4.1261   24.7356    4.1407 N   0  0  0  0  0  2  0  0  0  0  0  0
    2.9408   20.4635    6.3747 H   0  0  0  0  0  0  0  0  0  0  0  0
    3.8457   22.3630    6.1046 H   0  0  0  0  0  0  0  0  0  0  0  0
    1.0406   21.3094    5.9579 H   0  0  0  0  0  0  0  0  0  0  0  0
    3.2532   23.5285    5.7887 H   0  0  0  0  0  0  0  0  0  0  0  0
    0.5426   22.6827    5.6170 H   0  0  0  0  0  0  0  0  0  0  0  0
   -0.5635   24.2997    5.1484 H   0  0  0  0  0  0  0  0  0  0  0  0
    4.5976   25.3561    5.5833 H   0  0  0  0  0  0  0  0  0  0  0  0
    3.4512   26.4276    5.2202 H   0  0  0  0  0  0  0  0  0  0  0  0
    2.9773   24.3796    5.5776 H   0  0  0  0  0  0  0  0  0  0  0  0
    2.9217   27.1236    5.0105 H   0  0  0  0  0  0  0  0  0  0  0  0
    3.3734   28.3733    4.8120 H   0  0  0  0  0  0  0  0  0  0  0  0
    2.7387   29.3453    4.5332 H   0  0  0  0  0  0  0  0  0  0  0  0
    1.4154   30.1258    4.2067 H   0  0  0  0  0  0  0  0  0  0  0  0
    0.2373   30.2227    4.0383 H   0  0  0  0  0  0  0  0  0  0  0  0
   -1.2318   29.6719    3.9657 H   0  0  0  0  0  0  0  0  0  0  0  0
   -2.0661   28.8206    4.0345 H   0  0  0  0  0  0  0  0  0  0  0  0
   -2.6032   27.5300    4.2306 H   0  0  0  0  0  0  0  0  0  0  0  0
   -2.1436   23.9678    5.0170 H   0  0  0  0  0  0  0  0  0  0  0  0
   -4.8438   26.7317    4.1113 H   0  0  0  0  0  0  0  0  0  0  0  0
   -3.5944   28.6684    4.1628 H   0  0  0  0  0  0  0  0  0  0  0  0
   -5.3986   24.6260    3.3540 H   0  0  0  0  0  0  0  0  0  0  0  0
  1  2  1  0
  2  3  1  0
  3  4  1  0
  4  5  1  0
  5  6  1  0
  5  7  1  0
  7  8  1  0
  8  9  1  0
  9 10  1  0
 10 11  1  0
 11 12  1  0
 12 13  1  0
 13 14  1  0
 13 15  1  0
  5  3  1  0
 11  3  1  0
 11  4  1  0
  1 16  1  0
  1 17  1  0
  1 18  1  0
  2 19  1  0
  2 20  1  0
  4 21  1  0
  6 22  1  0
  6 23  1  0
  6 24  1  0
  7 25  1  0
  7 26  1  0
  8 27  1  0
  8 28  1  0
  9 29  1  0
  9 30  1  0
 10 31  1  0
 10 32  1  0
 12 33  1  0
 13 34  1  0
 14 35  1  0
 15 36  1  0
M  RAD  2  14   2  15   2
M  END
