
     RDKit          2D

 19 19  0  0  0  0  0  0  0  0999 V2000
   -4.0623   26.7762    8.7435 C   0  0  0  0  0  0  0  0  0  0  0  0
   -2.7351   26.9627    8.0697 N   0  0  0  0  0  0  0  0  0  0  0  0
   -1.2362   26.9541    8.1276 O   0  0  0  0  0  0  0  0  0  0  0  0
   -1.9353   27.2941    6.8447 S   0  0  0  0  0  4  0  0  0  0  0  0
   -3.0461   27.5498    5.8697 C   0  0  0  0  0  0  0  0  0  0  0  0
   -4.1570   27.8055    4.8947 C   0  0  0  0  0  0  0  0  0  0  0  0
   -3.1489   28.0970    3.8228 O   0  0  0  0  0  0  0  0  0  0  0  0
   -5.2677   28.0612    3.9196 C   0  0  0  0  0  0  0  0  0  0  0  0
   -4.9502   28.4415    2.5038 O   0  0  0  0  0  0  0  0  0  0  0  0
   -6.6961   27.9367    4.3604 O   0  0  0  0  0  0  0  0  0  0  0  0
   -5.3894   26.5898    9.4173 H   0  0  0  0  0  0  0  0  0  0  0  0
   -4.9179   27.0953    7.5535 H   0  0  0  0  0  0  0  0  0  0  0  0
   -3.3632   26.4318   10.0252 H   0  0  0  0  0  0  0  0  0  0  0  0
   -0.7498   27.5367    5.9585 H   0  0  0  0  0  0  0  0  0  0  0  0
   -2.0381   27.8382    4.7969 H   0  0  0  0  0  0  0  0  0  0  0  0
   -4.1821   27.2948    6.8156 H   0  0  0  0  0  0  0  0  0  0  0  0
   -5.1649   27.5140    5.9666 H   0  0  0  0  0  0  0  0  0  0  0  0
   -3.6069   28.4641    2.4423 H   0  0  0  0  0  0  0  0  0  0  0  0
   -7.8069   28.1924    3.3854 H   0  0  0  0  0  0  0  0  0  0  0  0
  1  2  1  0
  2  3  1  0
  3  4  1  0
  4  5  1  0
  5  6  1  0
  6  7  1  0
  6  8  1  0
  8  9  2  0
  8 10  1  0
  4  2  1  0
  1 11  1  0
  1 12  1  0
  1 13  1  0
  4 14  1  0
  5 15  1  0
  5 16  1  0
  6 17  1  0
  7 18  1  0
 10 19  1  0
M  END
