
     RDKit          2D

106112  0  0  0  0  0  0  0  0999 V2000
   -1.4046   20.2889   15.1917 C   0  0  0  0  0  0  0  0  0  0  0  0
   -0.6759   20.7606   13.9683 C   0  0  0  0  0  0  0  0  0  0  0  0
    0.0527   21.2323   12.7449 C   0  0  0  0  0  0  0  0  0  0  0  0
    0.7813   21.7041   11.5216 C   0  0  0  0  0  0  0  0  0  0  0  0
    1.5099   22.1758   10.2983 C   0  0  0  0  0  0  0  0  0  0  0  0
    2.2385   22.6475    9.0749 C   0  0  0  0  0  0  0  0  0  0  0  0
    2.9671   23.1191    7.8516 C   0  0  0  0  0  0  0  0  0  0  0  0
    3.8920   21.9422    7.9485 C   0  0  0  0  0  0  0  0  0  0  0  0
    2.0423   24.2962    7.7545 C   0  0  0  0  0  0  0  0  0  0  0  0
    1.3137   23.8244    8.9779 C   0  0  0  0  0  0  0  0  0  0  0  0
    0.3888   25.0014    8.8809 C   0  0  0  0  0  0  0  0  0  0  0  0
    1.0550   25.7657    7.7754 C   0  0  0  0  0  0  0  0  0  0  0  0
    0.4730   27.0662    7.3062 C   0  0  0  0  0  0  0  0  0  0  0  0
    1.4604   27.4217    6.2345 C   0  0  0  0  0  0  0  0  0  0  0  0
    0.6978   28.6818    5.9499 C   0  0  0  0  0  0  0  0  0  0  0  0
   -0.0648   29.9417    5.6655 C   0  0  0  0  0  0  0  0  0  0  0  0
    0.9255   30.2997    4.5971 O   0  0  0  0  0  0  0  0  0  0  0  0
   -0.8273   31.2016    5.3809 C   0  0  0  0  0  0  0  0  0  0  0  0
   -1.5899   32.4616    5.0964 C   0  0  0  0  0  0  0  0  0  0  0  0
   -2.3523   33.7217    4.8117 Al  0  0  0  0  0  3  0  0  0  0  0  0
   -2.0096   34.9866    5.5414 Br  0  0  0  0  0  0  0  0  0  0  0  0
    2.2230   26.1617    6.5190 C   0  0  0  0  0  0  0  0  0  0  0  0
    3.2104   26.5173    5.4472 C   0  0  0  0  0  0  0  0  0  0  0  0
    4.1977   26.8729    4.3755 C   0  0  0  0  0  0  0  0  0  0  0  0
    4.9612   25.6137    4.6611 C   0  0  0  0  0  0  0  0  0  0  0  0
    5.9486   25.9693    3.5893 C   0  0  0  0  0  0  0  0  0  0  0  0
    6.9359   26.3249    2.5175 C   0  0  0  0  0  0  0  0  0  0  0  0
    7.9233   26.6804    1.4458 C   0  0  0  0  0  0  0  0  0  0  0  0
    8.8102   27.1869    0.3472 Cl  0  0  0  0  0  0  0  0  0  0  0  0
    7.7311   25.0951    2.8421 C   0  0  0  0  0  0  0  0  0  0  0  0
    8.5263   23.8654    3.1667 C   0  0  0  0  0  0  0  0  0  0  0  0
    8.9359   22.5881    3.8383 C   0  0  0  0  0  0  0  0  0  0  0  0
    7.6920   23.3017    4.2786 C   0  0  0  0  0  0  0  0  0  0  0  0
    8.7189   25.4510    1.7708 C   0  0  0  0  0  0  0  0  0  0  0  0
    9.9185   25.3644    0.8746 C   0  0  0  0  0  0  0  0  0  0  0  0
    9.7248   26.6085    0.0591 C   0  0  0  0  0  0  0  0  0  0  0  0
    9.6722   24.3006    1.9029 C   0  0  0  0  0  0  0  0  0  0  0  0
   10.8537   23.4125    1.6470 C   0  0  0  0  0  0  0  0  0  0  0  0
    5.1851   27.2285    3.3037 C   0  0  0  0  0  0  0  0  0  0  0  0
    2.4477   27.7773    5.1627 C   0  0  0  0  0  0  0  0  0  0  0  0
   -0.1931   26.3018    8.4117 C   0  0  0  0  0  0  0  0  0  0  0  0
   -1.4412   26.8380    9.0479 N   0  0  0  0  0  0  0  0  0  0  0  0
   -2.3003   27.8180    8.3052 N   0  0  0  0  0  0  0  0  0  0  0  0
   -2.1334   19.8174   16.4150 H   0  0  0  0  0  0  0  0  0  0  0  0
   -2.3282   21.4670   15.0957 H   0  0  0  0  0  0  0  0  0  0  0  0
   -0.4811   19.1109   15.2877 H   0  0  0  0  0  0  0  0  0  0  0  0
   -1.5971   21.9407   13.8747 H   0  0  0  0  0  0  0  0  0  0  0  0
    0.2452   19.5805   14.0619 H   0  0  0  0  0  0  0  0  0  0  0  0
    0.1314   22.6136   13.3245 H   0  0  0  0  0  0  0  0  0  0  0  0
   -0.0260   19.8511   12.1655 H   0  0  0  0  0  0  0  0  0  0  0  0
   -0.1454   22.8795   11.4230 H   0  0  0  0  0  0  0  0  0  0  0  0
    1.7079   20.5285   11.6202 H   0  0  0  0  0  0  0  0  0  0  0  0
    0.9135   22.8300   10.3278 H   0  0  0  0  0  0  0  0  0  0  0  0
    2.4379   21.0015   10.3982 H   0  0  0  0  0  0  0  0  0  0  0  0
    2.7281   21.9237    9.2198 H   0  0  0  0  0  0  0  0  0  0  0  0
    3.6957   23.5909    6.6282 H   0  0  0  0  0  0  0  0  0  0  0  0
    4.8168   20.7653    8.0455 H   0  0  0  0  0  0  0  0  0  0  0  0
    4.6165   22.4104    6.7214 H   0  0  0  0  0  0  0  0  0  0  0  0
    3.5339   21.5830    8.6747 H   0  0  0  0  0  0  0  0  0  0  0  0
    2.9730   24.4690    6.5910 H   0  0  0  0  0  0  0  0  0  0  0  0
    1.5527   25.0199    7.6096 H   0  0  0  0  0  0  0  0  0  0  0  0
    0.8200   23.6327    9.6879 H   0  0  0  0  0  0  0  0  0  0  0  0
   -0.5985   24.6458    9.9526 H   0  0  0  0  0  0  0  0  0  0  0  0
    2.3031   25.2295    7.1392 H   0  0  0  0  0  0  0  0  0  0  0  0
   -0.5472   28.1651    7.3447 H   0  0  0  0  0  0  0  0  0  0  0  0
    1.5741   29.1788    4.8386 H   0  0  0  0  0  0  0  0  0  0  0  0
   -0.3643   28.4919    6.9919 H   0  0  0  0  0  0  0  0  0  0  0  0
   -1.0549   29.5836    6.7338 H   0  0  0  0  0  0  0  0  0  0  0  0
    0.9143   31.5231    3.7292 H   0  0  0  0  0  0  0  0  0  0  0  0
    0.3336   32.0089    4.8803 H   0  0  0  0  0  0  0  0  0  0  0  0
   -2.0906   30.5431    5.8504 H   0  0  0  0  0  0  0  0  0  0  0  0
   -0.6036   32.8161    4.0231 H   0  0  0  0  0  0  0  0  0  0  0  0
   -2.5761   32.1072    6.1695 H   0  0  0  0  0  0  0  0  0  0  0  0
   -3.4574   33.7168    3.7975 H   0  0  0  0  0  0  0  0  0  0  0  0
    3.2018   25.0253    6.5357 H   0  0  0  0  0  0  0  0  0  0  0  0
    1.3359   25.6553    7.6174 H   0  0  0  0  0  0  0  0  0  0  0  0
    3.8469   25.2234    5.8603 H   0  0  0  0  0  0  0  0  0  0  0  0
    4.6996   25.5651    4.9119 H   0  0  0  0  0  0  0  0  0  0  0  0
    5.7247   24.3546    4.9467 H   0  0  0  0  0  0  0  0  0  0  0  0
    4.0743   25.1073    5.7596 H   0  0  0  0  0  0  0  0  0  0  0  0
    6.4505   24.6615    4.1258 H   0  0  0  0  0  0  0  0  0  0  0  0
    6.2670   27.5888    2.0647 H   0  0  0  0  0  0  0  0  0  0  0  0
    7.1599   27.9397    1.1602 H   0  0  0  0  0  0  0  0  0  0  0  0
    8.9030   25.5446    1.4635 H   0  0  0  0  0  0  0  0  0  0  0  0
    6.7435   24.7392    3.9134 H   0  0  0  0  0  0  0  0  0  0  0  0
    9.7517   23.6899    2.3197 H   0  0  0  0  0  0  0  0  0  0  0  0
   10.2030   22.1320    3.1777 H   0  0  0  0  0  0  0  0  0  0  0  0
    8.9103   21.4175    4.7759 H   0  0  0  0  0  0  0  0  0  0  0  0
    7.2346   22.3788    5.3690 H   0  0  0  0  0  0  0  0  0  0  0  0
    6.4806   24.1223    4.6089 H   0  0  0  0  0  0  0  0  0  0  0  0
    8.2484   26.7323    1.1486 H   0  0  0  0  0  0  0  0  0  0  0  0
   11.1793   24.9926    0.1520 H   0  0  0  0  0  0  0  0  0  0  0  0
    9.5311   27.8524   -0.7563 H   0  0  0  0  0  0  0  0  0  0  0  0
   10.9758   26.2999   -0.7088 H   0  0  0  0  0  0  0  0  0  0  0  0
    8.4641   27.2089    0.6070 H   0  0  0  0  0  0  0  0  0  0  0  0
    9.2974   23.3172    2.9717 H   0  0  0  0  0  0  0  0  0  0  0  0
   12.0351   22.5244    1.3911 H   0  0  0  0  0  0  0  0  0  0  0  0
   11.1887   23.1356    3.0826 H   0  0  0  0  0  0  0  0  0  0  0  0
   10.8067   23.4729    0.1489 H   0  0  0  0  0  0  0  0  0  0  0  0
    4.4216   28.4876    3.0181 H   0  0  0  0  0  0  0  0  0  0  0  0
    6.0721   27.7349    2.2051 H   0  0  0  0  0  0  0  0  0  0  0  0
    1.8112   29.0713    4.7496 H   0  0  0  0  0  0  0  0  0  0  0  0
    3.4351   28.1329    4.0909 H   0  0  0  0  0  0  0  0  0  0  0  0
   -1.8303   26.3941   10.4269 H   0  0  0  0  0  0  0  0  0  0  0  0
   -1.9114   28.2618    6.9261 H   0  0  0  0  0  0  0  0  0  0  0  0
   -3.5483   28.3541    8.9416 H   0  0  0  0  0  0  0  0  0  0  0  0
  1  2  1  0
  2  3  1  0
  3  4  1  0
  4  5  1  0
  5  6  1  0
  6  7  1  0
  7  8  1  0
  7  9  1  0
  9 10  1  0
 10 11  1  0
 11 12  1  0
 12 13  1  0
 13 14  1  0
 14 15  1  0
 15 16  1  0
 16 17  1  0
 16 18  1  0
 18 19  1  0
 19 20  1  0
 20 21  1  0
 14 22  1  0
 22 23  1  0
 23 24  1  0
 24 25  1  0
 25 26  1  0
 26 27  1  0
 27 28  1  0
 28 29  1  0
 27 30  1  0
 30 31  1  0
 31 32  1  0
 32 33  1  0
 30 34  1  0
 34 35  1  0
 35 36  1  0
 35 37  1  0
 37 38  1  0
 26 39  1  0
 23 40  1  0
 13 41  1  0
 41 42  1  0
 42 43  1  0
 10  6  1  0
 41 11  1  0
 41 12  1  0
 40 14  1  0
 39 24  1  0
 33 31  1  0
 37 34  1  0
  1 44  1  0
  1 45  1  0
  1 46  1  0
  2 47  1  0
  2 48  1  0
  3 49  1  0
  3 50  1  0
  4 51  1  0
  4 52  1  0
  5 53  1  0
  5 54  1  0
  6 55  1  0
  7 56  1  0
  8 57  1  0
  8 58  1  0
  8 59  1  0
  9 60  1  0
  9 61  1  0
 10 62  1  0
 11 63  1  0
 12 64  1  0
 13 65  1  0
 15 66  1  0
 15 67  1  0
 16 68  1  0
 17 69  1  0
 18 70  1  0
 18 71  1  0
 19 72  1  0
 19 73  1  0
 20 74  1  0
 22 75  1  0
 22 76  1  0
 23 77  1  0
 24 78  1  0
 25 79  1  0
 25 80  1  0
 26 81  1  0
 27 82  1  0
 28 83  1  0
 28 84  1  0
 30 85  1  0
 31 86  1  0
 32 87  1  0
 32 88  1  0
 33 89  1  0
 33 90  1  0
 34 91  1  0
 35 92  1  0
 36 93  1  0
 36 94  1  0
 36 95  1  0
 37 96  1  0
 38 97  1  0
 38 98  1  0
 38 99  1  0
 39100  1  0
 39101  1  0
 40102  1  0
 40103  1  0
 42104  1  0
 43105  1  0
 43106  1  0
M  END
