
     RDKit          2D

 42 44  0  0  0  0  0  0  0  0999 V2000
   16.7241  -20.1031   -3.8241 C   0  0  0  0  0  0  0  0  0  0  0  0
   16.0828  -20.8875   -4.9302 C   0  0  0  0  0  0  0  0  0  0  0  0
   15.4414  -21.6720   -6.0363 C   0  0  0  0  0  0  0  0  0  0  0  0
   14.8001  -22.4563   -7.1423 C   0  0  0  0  0  0  0  0  0  0  0  0
   14.1588  -23.2407   -8.2485 C   0  0  0  0  0  0  0  0  0  0  0  0
   13.3563  -24.3008   -8.9430 C   0  0  0  0  0  0  0  0  0  0  0  0
   13.4720  -24.3068   -7.4474 C   0  0  0  0  0  0  0  0  0  0  0  0
   16.0252  -20.7273   -7.0446 C   0  0  0  0  0  0  0  0  0  0  0  0
   16.4450  -20.2009   -6.4692 S   0  0  0  0  0  1  0  0  0  0  0  0
   16.6090  -19.7827   -8.0531 N   0  0  0  0  0  2  0  0  0  0  0  0
   17.4587  -18.6327   -7.5996 C   0  0  0  0  0  0  0  0  0  0  0  0
   18.3084  -17.4829   -7.1460 C   0  0  0  0  0  0  0  0  0  0  0  0
   19.1582  -16.3329   -6.6925 C   0  0  0  0  0  0  0  0  0  0  0  0
   19.1250  -16.5537   -5.2093 C   0  0  0  0  0  0  0  0  0  0  0  0
   19.5307  -16.1415   -3.8252 C   0  0  0  0  0  0  0  0  0  0  0  0
   20.2995  -14.9863   -4.3946 C   0  0  0  0  0  0  0  0  0  0  0  0
   19.8939  -15.3984   -5.7786 C   0  0  0  0  0  0  0  0  0  0  0  0
   17.3654  -19.3188   -2.7180 H   0  0  0  0  0  0  0  0  0  0  0  0
   17.3092  -19.1595   -4.8326 H   0  0  0  0  0  0  0  0  0  0  0  0
   16.1389  -21.0468   -2.8156 H   0  0  0  0  0  0  0  0  0  0  0  0
   16.4715  -20.2778   -5.4416 H   0  0  0  0  0  0  0  0  0  0  0  0
   15.4983  -21.8317   -3.9217 H   0  0  0  0  0  0  0  0  0  0  0  0
   14.8577  -22.6166   -5.0279 H   0  0  0  0  0  0  0  0  0  0  0  0
   14.3535  -23.2173   -6.1206 H   0  0  0  0  0  0  0  0  0  0  0  0
   15.0931  -21.9571   -7.8128 H   0  0  0  0  0  0  0  0  0  0  0  0
   14.6229  -22.4471   -9.4336 H   0  0  0  0  0  0  0  0  0  0  0  0
   13.5417  -23.8752  -10.3693 H   0  0  0  0  0  0  0  0  0  0  0  0
   12.4893  -25.5087   -9.1420 H   0  0  0  0  0  0  0  0  0  0  0  0
   12.6452  -25.5168   -7.1271 H   0  0  0  0  0  0  0  0  0  0  0  0
   13.7474  -24.0637   -6.1484 H   0  0  0  0  0  0  0  0  0  0  0  0
   15.6894  -21.1177   -7.7654 H   0  0  0  0  0  0  0  0  0  0  0  0
   17.6413  -18.2053   -9.0257 H   0  0  0  0  0  0  0  0  0  0  0  0
   17.2761  -19.0602   -6.1734 H   0  0  0  0  0  0  0  0  0  0  0  0
   18.0249  -18.0482   -5.7859 H   0  0  0  0  0  0  0  0  0  0  0  0
   18.4897  -17.0544   -8.5721 H   0  0  0  0  0  0  0  0  0  0  0  0
   19.4864  -15.7128   -8.0184 H   0  0  0  0  0  0  0  0  0  0  0  0
   18.3072  -17.7551   -4.8380 H   0  0  0  0  0  0  0  0  0  0  0  0
   19.9363  -15.7294   -2.4412 H   0  0  0  0  0  0  0  0  0  0  0  0
   18.7618  -17.2968   -3.2559 H   0  0  0  0  0  0  0  0  0  0  0  0
   21.0684  -13.8310   -4.9639 H   0  0  0  0  0  0  0  0  0  0  0  0
   20.7052  -14.5741   -3.0105 H   0  0  0  0  0  0  0  0  0  0  0  0
   20.5316  -14.3891   -6.6868 H   0  0  0  0  0  0  0  0  0  0  0  0
  1  2  1  0
  2  3  1  0
  3  4  1  0
  4  5  1  0
  5  6  1  0
  6  7  1  0
  3  8  1  0
  8  9  1  0
  8 10  1  0
 10 11  1  0
 11 12  1  0
 12 13  1  0
 13 14  1  0
 14 15  1  0
 15 16  1  0
 16 17  1  0
  7  5  1  0
 17 13  1  0
 17 14  1  0
  1 18  1  0
  1 19  1  0
  1 20  1  0
  2 21  1  0
  2 22  1  0
  3 23  1  0
  4 24  1  0
  4 25  1  0
  5 26  1  0
  6 27  1  0
  6 28  1  0
  7 29  1  0
  7 30  1  0
  8 31  1  0
 11 32  1  0
 11 33  1  0
 12 34  1  0
 12 35  1  0
 13 36  1  0
 14 37  1  0
 15 38  1  0
 15 39  1  0
 16 40  1  0
 16 41  1  0
 17 42  1  0
M  RAD  2   9   2  10   2
M  END
