
     RDKit          2D

112116  0  0  0  0  0  0  0  0999 V2000
   -2.4203   24.9846   12.8740 C   0  0  0  0  0  0  0  0  0  0  0  0
   -2.1755   25.3921   11.4513 C   0  0  0  0  0  0  0  0  0  0  0  0
   -2.2279   26.8409   11.0665 C   0  0  0  0  0  0  0  0  0  0  0  0
   -1.9831   27.2485    9.6439 C   0  0  0  0  0  0  0  0  0  0  0  0
   -1.6860   26.2071    8.6060 C   0  0  0  0  0  0  0  0  0  0  0  0
   -1.9550   25.9908   10.0657 O   0  0  0  0  0  0  0  0  0  0  0  0
   -1.6336   24.7582    8.9907 C   0  0  0  0  0  0  0  0  0  0  0  0
   -1.8784   24.3507   10.4134 C   0  0  0  0  0  0  0  0  0  0  0  0
   -1.3753   23.4750    8.2582 C   0  0  0  0  0  0  0  0  0  0  0  0
   -1.0624   23.1091    6.8376 C   0  0  0  0  0  0  0  0  0  0  0  0
   -0.7653   22.0677    5.7997 C   0  0  0  0  0  0  0  0  0  0  0  0
   -0.4681   21.0263    4.7617 C   0  0  0  0  0  0  0  0  0  0  0  0
   -0.1710   19.9850    3.7239 C   0  0  0  0  0  0  0  0  0  0  0  0
    0.1262   18.9436    2.6859 C   0  0  0  0  0  0  0  0  0  0  0  0
   -0.5794   19.9545    5.8052 C   0  0  0  0  0  0  0  0  0  0  0  0
   -0.6907   18.8827    6.8487 C   0  0  0  0  0  0  0  0  0  0  0  0
   -0.2762   18.9137    4.7686 C   0  0  0  0  0  0  0  0  0  0  0  0
   -0.8782   23.8747    5.5610 C   0  0  0  0  0  0  0  0  0  0  0  0
   -0.9306   25.3236    5.1762 C   0  0  0  0  0  0  0  0  0  0  0  0
   -0.7923   26.2935    4.0403 C   0  0  0  0  0  0  0  0  0  0  0  0
   -0.9292   27.7870    4.0639 C   0  0  0  0  0  0  0  0  0  0  0  0
   -0.6372   27.7694    2.5927 C   0  0  0  0  0  0  0  0  0  0  0  0
   -0.4739   28.6335    1.3776 C   0  0  0  0  0  0  0  0  0  0  0  0
   -0.5015   30.0492    0.8825 N   0  0  0  0  0  0  0  0  0  0  0  0
   -0.7097   31.4758    1.2966 C   0  0  0  0  0  0  0  0  0  0  0  0
   -0.7374   32.8914    0.8016 C   0  0  0  0  0  0  0  0  0  0  0  0
   -1.0188   32.3683    2.4619 C   0  0  0  0  0  0  0  0  0  0  0  0
   -1.2270   33.7948    2.8762 C   0  0  0  0  0  0  0  0  0  0  0  0
   -1.4351   35.2214    3.2903 C   0  0  0  0  0  0  0  0  0  0  0  0
   -1.3108   32.3859    3.9331 C   0  0  0  0  0  0  0  0  0  0  0  0
   -1.4742   31.5219    5.1484 C   0  0  0  0  0  0  0  0  0  0  0  0
   -1.7833   32.4144    6.3136 O   0  0  0  0  0  0  0  0  0  0  0  0
   -1.4465   30.1062    5.6434 C   0  0  0  0  0  0  0  0  0  0  0  0
   -1.2384   28.6796    5.2291 C   0  0  0  0  0  0  0  0  0  0  0  0
   -1.4868   28.2991    6.6586 C   0  0  0  0  0  0  0  0  0  0  0  0
   -1.5018   26.9729    7.3293 C   0  0  0  0  0  0  0  0  0  0  0  0
   -1.1889   26.6069    5.9087 C   0  0  0  0  0  0  0  0  0  0  0  0
   -1.3663   27.3685    6.4654 C   0  0  0  0  0  0  0  0  0  0  0  0
   -1.1847   28.6956    4.9502 C   0  0  0  0  0  0  0  0  0  0  0  0
   -0.9787   29.3466    3.6146 C   0  0  0  0  0  0  0  0  0  0  0  0
   -0.7727   29.9976    2.2790 C   0  0  0  0  0  0  0  0  0  0  0  0
   -0.5667   30.6486    0.9434 C   0  0  0  0  0  0  0  0  0  0  0  0
   -1.4259   30.0408    5.5686 N   0  0  0  0  0  0  0  0  0  0  0  0
   -1.3682   31.2771    4.7212 O   0  0  0  0  0  0  0  0  0  0  0  0
   -2.3679   23.5357   13.2588 H   0  0  0  0  0  0  0  0  0  0  0  0
   -2.7175   26.0259   13.9119 H   0  0  0  0  0  0  0  0  0  0  0  0
   -2.5269   26.9498   12.5323 H   0  0  0  0  0  0  0  0  0  0  0  0
   -2.3842   28.3277   11.1909 H   0  0  0  0  0  0  0  0  0  0  0  0
   -2.2244   28.5936   10.2623 H   0  0  0  0  0  0  0  0  0  0  0  0
   -1.8567   28.2644    8.5475 H   0  0  0  0  0  0  0  0  0  0  0  0
   -2.0209   24.7769   10.9444 H   0  0  0  0  0  0  0  0  0  0  0  0
   -1.5839   23.3126    9.3878 H   0  0  0  0  0  0  0  0  0  0  0  0
   -1.6640   22.9363    9.9624 H   0  0  0  0  0  0  0  0  0  0  0  0
   -2.0394   23.4761   11.6213 H   0  0  0  0  0  0  0  0  0  0  0  0
   -1.2799   21.9893    8.4416 H   0  0  0  0  0  0  0  0  0  0  0  0
   -1.0591   22.7693    6.9729 H   0  0  0  0  0  0  0  0  0  0  0  0
   -1.0541   21.7252    7.4163 H   0  0  0  0  0  0  0  0  0  0  0  0
   -0.9154   21.1305    6.9612 H   0  0  0  0  0  0  0  0  0  0  0  0
   -0.6151   23.0048    4.6381 H   0  0  0  0  0  0  0  0  0  0  0  0
   -0.3568   22.0981    3.7183 H   0  0  0  0  0  0  0  0  0  0  0  0
   -0.0590   21.0568    2.6805 H   0  0  0  0  0  0  0  0  0  0  0  0
   -0.2077   18.6930    4.4851 H   0  0  0  0  0  0  0  0  0  0  0  0
    0.4234   17.9023    1.6480 H   0  0  0  0  0  0  0  0  0  0  0  0
    0.2377   20.0154    1.6424 H   0  0  0  0  0  0  0  0  0  0  0  0
    0.0518   17.7528    3.5951 H   0  0  0  0  0  0  0  0  0  0  0  0
   -0.8939   20.8569    6.9614 H   0  0  0  0  0  0  0  0  0  0  0  0
   -0.8020   17.8110    7.8922 H   0  0  0  0  0  0  0  0  0  0  0  0
   -0.2465   17.7397    5.9850 H   0  0  0  0  0  0  0  0  0  0  0  0
   -1.1519   19.9027    7.8472 H   0  0  0  0  0  0  0  0  0  0  0  0
    0.0112   17.7500    3.8668 H   0  0  0  0  0  0  0  0  0  0  0  0
   -0.3496   17.7231    5.6778 H   0  0  0  0  0  0  0  0  0  0  0  0
   -0.0948   19.7018    3.5052 H   0  0  0  0  0  0  0  0  0  0  0  0
   -0.5896   23.8963    4.0892 H   0  0  0  0  0  0  0  0  0  0  0  0
   -0.6021   22.6786    4.6990 H   0  0  0  0  0  0  0  0  0  0  0  0
   -0.6431   25.3581    3.7045 H   0  0  0  0  0  0  0  0  0  0  0  0
   -0.5224   25.0636    3.2251 H   0  0  0  0  0  0  0  0  0  0  0  0
   -0.5216   26.4950    2.5788 H   0  0  0  0  0  0  0  0  0  0  0  0
   -1.0640   26.8031    5.1880 H   0  0  0  0  0  0  0  0  0  0  0  0
   -0.3391   26.7374    1.5457 H   0  0  0  0  0  0  0  0  0  0  0  0
   -0.5712   26.3060    2.9152 H   0  0  0  0  0  0  0  0  0  0  0  0
   -0.1689   28.4339   -0.0775 H   0  0  0  0  0  0  0  0  0  0  0  0
   -0.2381   27.2718    0.7943 H   0  0  0  0  0  0  0  0  0  0  0  0
   -0.2095   30.0316   -0.5888 H   0  0  0  0  0  0  0  0  0  0  0  0
   -0.4350   31.6404   -0.1688 H   0  0  0  0  0  0  0  0  0  0  0  0
   -0.7650   34.3071    0.3066 H   0  0  0  0  0  0  0  0  0  0  0  0
   -0.4803   32.4081   -0.5949 H   0  0  0  0  0  0  0  0  0  0  0  0
   -0.9944   33.3747    2.1982 H   0  0  0  0  0  0  0  0  0  0  0  0
   -0.9261   33.5017    1.4837 H   0  0  0  0  0  0  0  0  0  0  0  0
   -0.9873   34.2399    1.4638 H   0  0  0  0  0  0  0  0  0  0  0  0
   -1.4901   33.5270    4.3283 H   0  0  0  0  0  0  0  0  0  0  0  0
   -1.6433   36.6481    3.7046 H   0  0  0  0  0  0  0  0  0  0  0  0
   -1.6745   34.7765    4.7026 H   0  0  0  0  0  0  0  0  0  0  0  0
   -1.1957   35.6665    1.8780 H   0  0  0  0  0  0  0  0  0  0  0  0
   -1.6199   33.2784    5.0984 H   0  0  0  0  0  0  0  0  0  0  0  0
   -1.4141   33.8753    3.7881 H   0  0  0  0  0  0  0  0  0  0  0  0
   -1.6708   29.5628    7.0234 H   0  0  0  0  0  0  0  0  0  0  0  0
   -1.7446   31.1382    6.6903 H   0  0  0  0  0  0  0  0  0  0  0  0
   -1.2621   30.0893    4.7169 H   0  0  0  0  0  0  0  0  0  0  0  0
   -1.7173   29.6756    7.2082 H   0  0  0  0  0  0  0  0  0  0  0  0
   -1.8025   28.7599    8.0508 H   0  0  0  0  0  0  0  0  0  0  0  0
   -1.0351   27.5130    4.7233 H   0  0  0  0  0  0  0  0  0  0  0  0
   -1.6816   29.1407    7.2677 H   0  0  0  0  0  0  0  0  0  0  0  0
   -0.8856   27.6732    3.8941 H   0  0  0  0  0  0  0  0  0  0  0  0
   -1.1286   30.8358    3.7135 H   0  0  0  0  0  0  0  0  0  0  0  0
   -0.6963   28.1988    2.6911 H   0  0  0  0  0  0  0  0  0  0  0  0
   -0.2248   28.8971    1.4195 H   0  0  0  0  0  0  0  0  0  0  0  0
   -1.2859   31.2941    2.8318 H   0  0  0  0  0  0  0  0  0  0  0  0
   -0.3328   31.1307   -0.4576 H   0  0  0  0  0  0  0  0  0  0  0  0
   -0.3021   29.3928    0.1669 H   0  0  0  0  0  0  0  0  0  0  0  0
   -0.7509   32.1112    1.2203 H   0  0  0  0  0  0  0  0  0  0  0  0
   -1.7357   30.3304    7.0075 H   0  0  0  0  0  0  0  0  0  0  0  0
   -1.6327   32.5328    5.4977 H   0  0  0  0  0  0  0  0  0  0  0  0
  1  2  2  3
  2  3  1  0
  3  4  1  0
  4  5  1  0
  5  6  1  0
  5  7  1  0
  7  8  1  0
  7  9  1  0
  9 10  1  0
 10 11  1  0
 11 12  1  0
 12 13  1  0
 13 14  1  0
 12 15  1  0
 15 16  1  0
 15 17  1  0
 10 18  1  0
 18 19  1  0
 19 20  1  0
 20 21  1  0
 21 22  1  0
 22 23  1  0
 23 24  1  0
 24 25  1  0
 25 26  1  0
 25 27  1  0
 27 28  1  0
 28 29  1  0
 27 30  1  0
 30 31  1  0
 31 32  2  0
 31 33  1  0
 33 34  1  0
 34 35  1  0
 35 36  1  0
 36 37  1  0
 37 38  1  0
 38 39  1  0
 39 40  1  0
 40 41  1  0
 41 42  1  0
 39 43  1  0
 43 44  1  0
  8  2  1  0
 37 19  1  0
 36  5  1  0
 34 21  1  0
 38 36  1  0
  1 45  1  0
  1 46  1  0
  3 47  1  0
  3 48  1  0
  4 49  1  0
  4 50  1  0
  6 51  1  0
  7 52  1  0
  8 53  1  0
  8 54  1  0
  9 55  1  0
  9 56  1  0
 10 57  1  0
 11 58  1  0
 11 59  1  0
 12 60  1  0
 13 61  1  0
 13 62  1  0
 14 63  1  0
 14 64  1  0
 14 65  1  0
 15 66  1  0
 16 67  1  0
 16 68  1  0
 16 69  1  0
 17 70  1  0
 17 71  1  0
 17 72  1  0
 18 73  1  0
 18 74  1  0
 19 75  1  0
 20 76  1  0
 20 77  1  0
 21 78  1  0
 22 79  1  0
 22 80  1  0
 23 81  1  0
 23 82  1  0
 24 83  1  0
 25 84  1  0
 26 85  1  0
 26 86  1  0
 26 87  1  0
 27 88  1  0
 28 89  1  0
 28 90  1  0
 29 91  1  0
 29 92  1  0
 29 93  1  0
 30 94  1  0
 30 95  1  0
 33 96  1  0
 33 97  1  0
 34 98  1  0
 35 99  1  0
 35100  1  0
 37101  1  0
 38102  1  0
 39103  1  0
 40104  1  0
 40105  1  0
 41106  1  0
 41107  1  0
 42108  1  0
 42109  1  0
 42110  1  0
 43111  1  0
 44112  1  0
M  END
