
     RDKit          2D

 25 26  0  0  0  0  0  0  0  0999 V2000
   15.6655  -18.8142   -7.9198 C   0  0  0  0  0  0  0  0  0  0  0  0
   16.1919  -20.0678   -7.2864 C   0  0  0  0  0  0  0  0  0  0  0  0
   16.7183  -21.3215   -6.6529 C   0  0  0  0  0  0  0  0  0  0  0  0
   14.8053  -20.4235   -6.8381 C   0  0  0  0  0  0  0  0  0  0  0  0
   14.0462  -19.2505   -7.3839 C   0  0  0  0  0  0  0  0  0  0  0  0
   13.3224  -20.3288   -6.6334 C   0  0  0  0  0  0  0  0  0  0  0  0
   13.0849  -21.5924   -5.8609 N   0  0  0  0  0  0  0  0  0  0  0  0
   13.6112  -22.8463   -5.2276 C   0  0  0  0  0  0  0  0  0  0  0  0
   12.1472  -22.5274   -5.1560 C   0  0  0  0  0  0  0  0  0  0  0  0
   11.6591  -23.7164   -4.3828 O   0  0  0  0  0  0  0  0  0  0  0  0
   15.2392  -17.7987   -8.4329 H   0  0  0  0  0  0  0  0  0  0  0  0
   14.8830  -18.8359   -7.7694 H   0  0  0  0  0  0  0  0  0  0  0  0
   17.0518  -18.4593   -8.3694 H   0  0  0  0  0  0  0  0  0  0  0  0
   17.5784  -19.7122   -7.7346 H   0  0  0  0  0  0  0  0  0  0  0  0
   17.2445  -22.5752   -6.0195 H   0  0  0  0  0  0  0  0  0  0  0  0
   15.7619  -21.6897   -6.2714 H   0  0  0  0  0  0  0  0  0  0  0  0
   18.1047  -20.9665   -7.1024 H   0  0  0  0  0  0  0  0  0  0  0  0
   14.8767  -21.3734   -6.3011 H   0  0  0  0  0  0  0  0  0  0  0  0
   12.8972  -18.3425   -7.7081 H   0  0  0  0  0  0  0  0  0  0  0  0
   14.6073  -18.5970   -7.8600 H   0  0  0  0  0  0  0  0  0  0  0  0
   11.9219  -19.7954   -6.6970 H   0  0  0  0  0  0  0  0  0  0  0  0
   15.0681  -22.7138   -5.5592 H   0  0  0  0  0  0  0  0  0  0  0  0
   13.6315  -24.1461   -4.4792 H   0  0  0  0  0  0  0  0  0  0  0  0
   10.8527  -21.7955   -5.3530 H   0  0  0  0  0  0  0  0  0  0  0  0
   10.2023  -23.8489   -4.0513 H   0  0  0  0  0  0  0  0  0  0  0  0
  1  2  1  0
  2  3  1  0
  2  4  1  0
  4  5  1  0
  5  6  1  0
  6  7  1  0
  7  8  1  0
  8  9  1  0
  9 10  1  0
  6  4  1  0
  9  7  1  0
  1 11  1  0
  1 12  1  0
  1 13  1  0
  2 14  1  0
  3 15  1  0
  3 16  1  0
  3 17  1  0
  4 18  1  0
  5 19  1  0
  5 20  1  0
  6 21  1  0
  8 22  1  0
  8 23  1  0
  9 24  1  0
 10 25  1  0
M  END
