
     RDKit          2D

 46 46  0  0  0  0  0  0  0  0999 V2000
   12.6479  -22.2919   -0.2020 C   0  0  0  0  0  0  0  0  0  0  0  0
   12.5551  -21.7788   -1.6085 C   0  0  0  0  0  0  0  0  0  0  0  0
   12.4624  -21.2658   -3.0150 C   0  0  0  0  0  0  0  0  0  0  0  0
   12.1879  -20.7595   -4.4000 I   0  0  0  0  0  0  0  0  0  0  0  0
   14.0522  -21.7561   -1.6990 C   0  0  0  0  0  0  0  0  0  0  0  0
   15.5493  -21.7334   -1.7894 C   0  0  0  0  0  0  0  0  0  0  0  0
   13.9604  -21.1523   -3.0690 C   0  0  0  0  0  0  0  0  0  0  0  0
   13.8684  -20.5485   -4.4391 C   0  0  0  0  0  0  0  0  0  0  0  0
   15.1765  -21.1840   -4.8068 N   0  0  0  0  0  0  0  0  0  0  0  0
   15.7508  -20.9788   -6.1772 C   0  0  0  0  0  0  0  0  0  0  0  0
   16.3252  -20.7736   -7.5477 N   0  0  0  0  0  2  0  0  0  0  0  0
   17.5041  -21.6257   -7.1811 C   0  0  0  0  0  0  0  0  0  0  0  0
   18.0784  -21.4205   -8.5515 N   0  0  0  0  0  0  0  0  0  0  0  0
   19.3871  -22.0549   -8.9188 C   0  0  0  0  0  0  0  0  0  0  0  0
   17.3442  -20.5809   -9.5544 C   0  0  0  0  0  0  0  0  0  0  0  0
   16.6100  -19.7414  -10.5575 C   0  0  0  0  0  0  0  0  0  0  0  0
   15.8757  -18.9018  -11.5604 O   0  0  0  0  0  0  0  0  0  0  0  0
   16.9297  -21.8308   -5.8107 N   0  0  0  0  0  2  0  0  0  0  0  0
   13.7765  -19.9447   -5.8091 C   0  0  0  0  0  0  0  0  0  0  0  0
   12.4341  -19.6625   -6.4158 O   0  0  0  0  0  0  0  0  0  0  0  0
   15.0270  -19.6230   -6.5724 O   0  0  0  0  0  0  0  0  0  0  0  0
   12.7407  -22.8049    1.2045 H   0  0  0  0  0  0  0  0  0  0  0  0
   11.1521  -22.2625   -0.0927 H   0  0  0  0  0  0  0  0  0  0  0  0
   14.1438  -22.3835   -0.1392 H   0  0  0  0  0  0  0  0  0  0  0  0
   11.0581  -21.8015   -1.5181 H   0  0  0  0  0  0  0  0  0  0  0  0
   10.9653  -21.2898   -2.9250 H   0  0  0  0  0  0  0  0  0  0  0  0
   13.2225  -21.1874   -3.2422 H   0  0  0  0  0  0  0  0  0  0  0  0
   14.3260  -22.3526   -0.3502 H   0  0  0  0  0  0  0  0  0  0  0  0
   17.0465  -21.7107   -1.8798 H   0  0  0  0  0  0  0  0  0  0  0  0
   15.6421  -22.2455   -0.3826 H   0  0  0  0  0  0  0  0  0  0  0  0
   15.8216  -21.2309   -3.1763 H   0  0  0  0  0  0  0  0  0  0  0  0
   12.4855  -21.0275   -3.3125 H   0  0  0  0  0  0  0  0  0  0  0  0
   15.4575  -21.1303   -3.1598 H   0  0  0  0  0  0  0  0  0  0  0  0
   12.5589  -19.8442   -4.2409 H   0  0  0  0  0  0  0  0  0  0  0  0
   16.1513  -22.0598   -4.0769 H   0  0  0  0  0  0  0  0  0  0  0  0
   14.7460  -20.1025   -6.8645 H   0  0  0  0  0  0  0  0  0  0  0  0
   18.6829  -22.4777   -6.8145 H   0  0  0  0  0  0  0  0  0  0  0  0
   20.6958  -22.6893   -9.2863 H   0  0  0  0  0  0  0  0  0  0  0  0
   19.2942  -21.4526  -10.2895 H   0  0  0  0  0  0  0  0  0  0  0  0
   19.4800  -22.6571   -7.5482 H   0  0  0  0  0  0  0  0  0  0  0  0
   16.2681  -20.3148   -8.5439 H   0  0  0  0  0  0  0  0  0  0  0  0
   18.4204  -20.8470  -10.5650 H   0  0  0  0  0  0  0  0  0  0  0  0
   15.5245  -19.4907   -9.5530 H   0  0  0  0  0  0  0  0  0  0  0  0
   17.6955  -19.9920  -11.5620 H   0  0  0  0  0  0  0  0  0  0  0  0
   16.4501  -18.6966  -12.9309 H   0  0  0  0  0  0  0  0  0  0  0  0
   14.9351  -19.0192   -7.9424 H   0  0  0  0  0  0  0  0  0  0  0  0
  1  2  1  0
  2  3  1  0
  3  4  1  0
  2  5  1  0
  5  6  1  0
  5  7  1  0
  7  8  1  0
  8  9  1  0
  9 10  1  0
 10 11  1  0
 11 12  1  0
 12 13  1  0
 13 14  1  0
 13 15  1  0
 15 16  1  0
 16 17  1  0
 12 18  1  0
  8 19  1  0
 19 20  2  0
 19 21  1  0
 18 10  1  0
  1 22  1  0
  1 23  1  0
  1 24  1  0
  2 25  1  0
  3 26  1  0
  3 27  1  0
  5 28  1  0
  6 29  1  0
  6 30  1  0
  6 31  1  0
  7 32  1  0
  7 33  1  0
  8 34  1  0
  9 35  1  0
 10 36  1  0
 12 37  1  0
 14 38  1  0
 14 39  1  0
 14 40  1  0
 15 41  1  0
 15 42  1  0
 16 43  1  0
 16 44  1  0
 17 45  1  0
 21 46  1  0
M  RAD  2  11   2  18   2
M  END
