
     RDKit          2D

 37 38  0  0  0  0  0  0  0  0999 V2000
   18.3216  -23.0474   -4.0105 C   0  0  0  0  0  0  0  0  0  0  0  0
   18.0982  -23.0643   -5.4937 C   0  0  0  0  0  0  0  0  0  0  0  0
   17.1663  -24.0712   -6.1003 C   0  0  0  0  0  0  0  0  0  0  0  0
   18.8066  -22.0745   -6.3702 C   0  0  0  0  0  0  0  0  0  0  0  0
   19.5150  -21.0847   -7.2468 C   0  0  0  0  0  0  0  0  0  0  0  0
   18.0186  -22.5569   -7.5519 C   0  0  0  0  0  0  0  0  0  0  0  0
   17.2306  -23.0393   -8.7336 N   0  0  0  0  0  0  0  0  0  0  0  0
   16.6199  -24.4093   -8.7191 C   0  0  0  0  0  0  0  0  0  0  0  0
   17.0532  -22.1517   -9.9297 C   0  0  0  0  0  0  0  0  0  0  0  0
   17.6639  -20.7817   -9.9441 N   0  0  0  0  0  0  0  0  0  0  0  0
   17.4865  -19.8941  -11.1402 C   0  0  0  0  0  0  0  0  0  0  0  0
   18.3125  -18.9950  -10.2689 N   0  0  0  0  0  0  0  0  0  0  0  0
   16.6985  -20.3765  -12.3219 N   0  0  0  0  0  0  0  0  0  0  0  0
   15.9105  -20.8589  -13.5036 C   0  0  0  0  0  0  0  0  0  0  0  0
   16.0878  -21.7465  -12.3075 C   0  0  0  0  0  0  0  0  0  0  0  0
   16.2652  -22.6341  -11.1113 N   0  0  0  0  0  0  0  0  0  0  0  0
   17.6131  -24.0372   -3.1340 H   0  0  0  0  0  0  0  0  0  0  0  0
   19.2534  -22.0406   -3.4039 H   0  0  0  0  0  0  0  0  0  0  0  0
   16.2344  -25.0779   -6.7070 H   0  0  0  0  0  0  0  0  0  0  0  0
   16.8875  -24.6339   -4.7382 H   0  0  0  0  0  0  0  0  0  0  0  0
   17.2530  -23.8395   -6.8582 H   0  0  0  0  0  0  0  0  0  0  0  0
   19.5946  -21.5921   -5.1886 H   0  0  0  0  0  0  0  0  0  0  0  0
   20.2235  -20.0948   -8.1233 H   0  0  0  0  0  0  0  0  0  0  0  0
   20.1832  -20.4946   -6.0404 H   0  0  0  0  0  0  0  0  0  0  0  0
   19.1745  -21.3592   -8.0169 H   0  0  0  0  0  0  0  0  0  0  0  0
   18.1086  -21.8277   -8.0466 H   0  0  0  0  0  0  0  0  0  0  0  0
   17.7443  -23.2955   -7.4302 H   0  0  0  0  0  0  0  0  0  0  0  0
   16.0093  -25.7793   -8.7047 H   0  0  0  0  0  0  0  0  0  0  0  0
   16.6078  -24.3881   -7.2193 H   0  0  0  0  0  0  0  0  0  0  0  0
   16.6320  -24.4305  -10.2189 H   0  0  0  0  0  0  0  0  0  0  0  0
   17.5960  -18.6942  -12.0337 H   0  0  0  0  0  0  0  0  0  0  0  0
   18.6957  -17.6276  -10.7520 H   0  0  0  0  0  0  0  0  0  0  0  0
   18.7554  -19.4633   -8.9145 H   0  0  0  0  0  0  0  0  0  0  0  0
   16.0200  -19.6590  -14.3971 H   0  0  0  0  0  0  0  0  0  0  0  0
   15.0844  -21.7581  -14.3749 H   0  0  0  0  0  0  0  0  0  0  0  0
   16.9143  -20.9236  -11.3641 H   0  0  0  0  0  0  0  0  0  0  0  0
   15.6546  -24.0041  -11.0968 H   0  0  0  0  0  0  0  0  0  0  0  0
  1  2  2  3
  2  3  1  0
  2  4  1  0
  4  5  1  0
  4  6  1  0
  6  7  1  0
  7  8  1  0
  7  9  1  0
  9 10  2  0
 10 11  1  0
 11 12  1  0
 11 13  1  0
 13 14  1  0
 14 15  1  0
 15 16  1  0
 16  9  1  0
 15 13  1  0
  1 17  1  0
  1 18  1  0
  3 19  1  0
  3 20  1  0
  3 21  1  0
  4 22  1  0
  5 23  1  0
  5 24  1  0
  5 25  1  0
  6 26  1  0
  6 27  1  0
  8 28  1  0
  8 29  1  0
  8 30  1  0
 11 31  1  0
 12 32  1  0
 12 33  1  0
 14 34  1  0
 14 35  1  0
 15 36  1  0
 16 37  1  0
M  END
