
     RDKit          2D

 47 53  0  0  0  0  0  0  0  0999 V2000
   17.8430  -20.4778   -8.7181 C   0  0  0  0  0  0  0  0  0  0  0  0
   17.3036  -21.2257   -7.5351 C   0  0  0  0  0  0  0  0  0  0  0  0
   16.7167  -19.9112   -7.1137 C   0  0  0  0  0  0  0  0  0  0  0  0
   15.8936  -19.6008   -5.8988 C   0  0  0  0  0  0  0  0  0  0  0  0
   15.0656  -19.0803   -4.7615 C   0  0  0  0  0  0  0  0  0  0  0  0
   15.4539  -20.5285   -4.8051 C   0  0  0  0  0  0  0  0  0  0  0  0
   15.7289  -21.9955   -4.6562 C   0  0  0  0  0  0  0  0  0  0  0  0
   15.1017  -22.5469   -3.4101 C   0  0  0  0  0  0  0  0  0  0  0  0
   15.8842  -23.4486   -4.3182 C   0  0  0  0  0  0  0  0  0  0  0  0
   16.0396  -24.9018   -3.9802 C   0  0  0  0  0  0  0  0  0  0  0  0
   16.5114  -22.8973   -5.5642 C   0  0  0  0  0  0  0  0  0  0  0  0
   17.2122  -22.5547   -6.8455 C   0  0  0  0  0  0  0  0  0  0  0  0
   17.9710  -22.4285   -8.1332 C   0  0  0  0  0  0  0  0  0  0  0  0
   18.5704  -21.8100   -9.3613 C   0  0  0  0  0  0  0  0  0  0  0  0
   18.1110  -20.3924   -9.1897 O   0  0  0  0  0  0  0  0  0  0  0  0
   19.3292  -21.6839  -10.6490 C   0  0  0  0  0  0  0  0  0  0  0  0
   20.0881  -21.5578  -11.9368 C   0  0  0  0  0  0  0  0  0  0  0  0
   20.7555  -22.7606  -12.5349 C   0  0  0  0  0  0  0  0  0  0  0  0
   20.6641  -24.0895  -11.8453 C   0  0  0  0  0  0  0  0  0  0  0  0
   19.9052  -24.2156  -10.5576 O   0  0  0  0  0  0  0  0  0  0  0  0
   19.2378  -23.0128   -9.9595 C   0  0  0  0  0  0  0  0  0  0  0  0
   18.3017  -19.5817   -9.8301 H   0  0  0  0  0  0  0  0  0  0  0  0
   17.2845  -19.1339   -8.3550 H   0  0  0  0  0  0  0  0  0  0  0  0
   18.5837  -21.5216   -9.5004 H   0  0  0  0  0  0  0  0  0  0  0  0
   17.3584  -19.3972   -8.3683 H   0  0  0  0  0  0  0  0  0  0  0  0
   16.4418  -18.4440   -7.2626 H   0  0  0  0  0  0  0  0  0  0  0  0
   15.8612  -18.1940   -6.4184 H   0  0  0  0  0  0  0  0  0  0  0  0
   14.9510  -17.6390   -5.1611 H   0  0  0  0  0  0  0  0  0  0  0  0
   14.2774  -19.0603   -3.4854 H   0  0  0  0  0  0  0  0  0  0  0  0
   14.6950  -20.6546   -3.5173 H   0  0  0  0  0  0  0  0  0  0  0  0
   14.4596  -21.3038   -2.8696 H   0  0  0  0  0  0  0  0  0  0  0  0
   14.6977  -23.5300   -2.3518 H   0  0  0  0  0  0  0  0  0  0  0  0
   16.1950  -26.3549   -3.6421 H   0  0  0  0  0  0  0  0  0  0  0  0
   16.8495  -25.1051   -5.2264 H   0  0  0  0  0  0  0  0  0  0  0  0
   15.2298  -24.6985   -2.7341 H   0  0  0  0  0  0  0  0  0  0  0  0
   17.0044  -24.2943   -5.7993 H   0  0  0  0  0  0  0  0  0  0  0  0
   17.6005  -24.0028   -6.8890 H   0  0  0  0  0  0  0  0  0  0  0  0
   18.3428  -23.8816   -8.1478 H   0  0  0  0  0  0  0  0  0  0  0  0
   18.5663  -19.4905  -10.2984 H   0  0  0  0  0  0  0  0  0  0  0  0
   19.4683  -23.1326  -10.2862 H   0  0  0  0  0  0  0  0  0  0  0  0
   20.6874  -20.9393  -13.1649 H   0  0  0  0  0  0  0  0  0  0  0  0
   19.6287  -20.1401  -11.7651 H   0  0  0  0  0  0  0  0  0  0  0  0
   21.5506  -23.6034  -13.4875 H   0  0  0  0  0  0  0  0  0  0  0  0
   21.1230  -21.7243  -13.5552 H   0  0  0  0  0  0  0  0  0  0  0  0
   20.8598  -25.5509  -11.5697 H   0  0  0  0  0  0  0  0  0  0  0  0
   21.4909  -24.4709  -13.0374 H   0  0  0  0  0  0  0  0  0  0  0  0
   18.8319  -23.9933   -8.8993 H   0  0  0  0  0  0  0  0  0  0  0  0
  1  2  1  0
  2  3  1  0
  3  4  1  0
  4  5  1  0
  5  6  1  0
  6  7  1  0
  7  8  1  0
  8  9  1  0
  9 10  1  0
  9 11  1  0
 11 12  1  0
 12 13  1  0
 13 14  1  0
 14 15  1  0
 14 16  1  0
 16 17  1  0
 17 18  1  0
 18 19  1  0
 19 20  1  0
 20 21  1  0
 12  2  1  0
 21 14  1  0
 13  2  1  0
 21 16  1  0
  6  4  1  0
  9  7  1  0
 11  7  1  0
  1 22  1  0
  1 23  1  0
  1 24  1  0
  3 25  1  0
  3 26  1  0
  4 27  1  0
  5 28  1  0
  5 29  1  0
  6 30  1  0
  8 31  1  0
  8 32  1  0
 10 33  1  0
 10 34  1  0
 10 35  1  0
 11 36  1  0
 12 37  1  0
 13 38  1  0
 15 39  1  0
 16 40  1  0
 17 41  1  0
 17 42  1  0
 18 43  1  0
 18 44  1  0
 19 45  1  0
 19 46  1  0
 21 47  1  0
M  END
