
     RDKit          2D

114120  0  0  0  0  0  0  0  0999 V2000
   16.6262  -20.1492   -4.4970 C   0  0  0  0  0  0  0  0  0  0  0  0
   17.0326  -20.9316   -5.7106 C   0  0  0  0  0  0  0  0  0  0  0  0
   17.4391  -21.7139   -6.9241 C   0  0  0  0  0  0  0  0  0  0  0  0
   17.8456  -22.4962   -8.1377 C   0  0  0  0  0  0  0  0  0  0  0  0
   19.2157  -22.3167   -8.7215 N   0  0  0  0  0  0  0  0  0  0  0  0
   16.8821  -23.4580   -8.7675 C   0  0  0  0  0  0  0  0  0  0  0  0
   15.9187  -24.4197   -9.3973 C   0  0  0  0  0  0  0  0  0  0  0  0
   15.9304  -22.3297   -9.0346 C   0  0  0  0  0  0  0  0  0  0  0  0
   14.9788  -21.2015   -9.3017 C   0  0  0  0  0  0  0  0  0  0  0  0
   14.0270  -20.0732   -9.5688 C   0  0  0  0  0  0  0  0  0  0  0  0
   13.5263  -21.4075  -10.0368 C   0  0  0  0  0  0  0  0  0  0  0  0
   12.6439  -22.4595  -10.6409 C   0  0  0  0  0  0  0  0  0  0  0  0
   11.4757  -23.1151  -11.3154 C   0  0  0  0  0  0  0  0  0  0  0  0
   11.1889  -24.5376  -11.6953 C   0  0  0  0  0  0  0  0  0  0  0  0
   10.1479  -23.3034  -11.9875 C   0  0  0  0  0  0  0  0  0  0  0  0
    8.8046  -23.0040  -12.5841 C   0  0  0  0  0  0  0  0  0  0  0  0
    7.5914  -22.2493  -13.0408 C   0  0  0  0  0  0  0  0  0  0  0  0
    6.6397  -21.1211  -13.3078 C   0  0  0  0  0  0  0  0  0  0  0  0
    6.0527  -19.7416  -13.3565 C   0  0  0  0  0  0  0  0  0  0  0  0
    5.8938  -18.2603  -13.1814 C   0  0  0  0  0  0  0  0  0  0  0  0
    6.1806  -16.8377  -12.8015 C   0  0  0  0  0  0  0  0  0  0  0  0
    5.5271  -15.4903  -12.8876 C   0  0  0  0  0  0  0  0  0  0  0  0
    6.8817  -15.6282  -12.2581 C   0  0  0  0  0  0  0  0  0  0  0  0
    7.9212  -14.7626  -11.6099 C   0  0  0  0  0  0  0  0  0  0  0  0
    9.1865  -14.3347  -10.9273 C   0  0  0  0  0  0  0  0  0  0  0  0
   10.5404  -14.3911  -10.2842 C   0  0  0  0  0  0  0  0  0  0  0  0
   10.1585  -12.9857  -10.2296 C   0  0  0  0  0  0  0  0  0  0  0  0
   10.4270  -11.5576   -9.8575 C   0  0  0  0  0  0  0  0  0  0  0  0
   11.3233  -10.5201   -9.2492 C   0  0  0  0  0  0  0  0  0  0  0  0
   10.8919   -9.0840   -9.2132 C   0  0  0  0  0  0  0  0  0  0  0  0
   12.1760   -8.7152   -8.5315 C   0  0  0  0  0  0  0  0  0  0  0  0
   13.4603   -8.3464   -7.8498 N   0  0  0  0  0  0  0  0  0  0  0  0
   12.6076  -10.1514   -8.5675 C   0  0  0  0  0  0  0  0  0  0  0  0
   13.5040   -9.1139   -7.9591 N   0  0  0  0  0  0  0  0  0  0  0  0
   13.9355  -10.5500   -7.9951 C   0  0  0  0  0  0  0  0  0  0  0  0
   14.9513  -11.6094   -7.6854 C   0  0  0  0  0  0  0  0  0  0  0  0
   15.3829  -13.0456   -7.7213 C   0  0  0  0  0  0  0  0  0  0  0  0
   15.1144  -14.4737   -8.0934 C   0  0  0  0  0  0  0  0  0  0  0  0
   14.2180  -15.5111   -8.7017 C   0  0  0  0  0  0  0  0  0  0  0  0
   12.9338  -15.8799   -9.3834 C   0  0  0  0  0  0  0  0  0  0  0  0
   13.7138  -17.1511   -9.2234 C   0  0  0  0  0  0  0  0  0  0  0  0
   14.0919  -18.6013   -9.2875 C   0  0  0  0  0  0  0  0  0  0  0  0
   11.8363  -14.9254   -9.7503 C   0  0  0  0  0  0  0  0  0  0  0  0
   12.4393  -13.6491   -9.2428 S   0  0  0  0  0  0  0  0  0  0  0  0
    6.2282  -14.2807  -12.3441 C   0  0  0  0  0  0  0  0  0  0  0  0
   16.2199  -19.3668   -3.2834 H   0  0  0  0  0  0  0  0  0  0  0  0
   17.9625  -19.4678   -4.4889 H   0  0  0  0  0  0  0  0  0  0  0  0
   15.2900  -20.8308   -4.5051 H   0  0  0  0  0  0  0  0  0  0  0  0
   15.6891  -21.5982   -5.7309 H   0  0  0  0  0  0  0  0  0  0  0  0
   18.3763  -20.2650   -5.6903 H   0  0  0  0  0  0  0  0  0  0  0  0
   18.8658  -21.6904   -6.4614 H   0  0  0  0  0  0  0  0  0  0  0  0
   16.0125  -21.7375   -7.3869 H   0  0  0  0  0  0  0  0  0  0  0  0
   20.1792  -21.3549   -8.0918 H   0  0  0  0  0  0  0  0  0  0  0  0
   17.8338  -24.5862   -8.5004 H   0  0  0  0  0  0  0  0  0  0  0  0
   14.9552  -25.3816  -10.0271 H   0  0  0  0  0  0  0  0  0  0  0  0
   16.7581  -25.5698   -8.9253 H   0  0  0  0  0  0  0  0  0  0  0  0
   14.9680  -23.3955   -9.9425 H   0  0  0  0  0  0  0  0  0  0  0  0
   14.8972  -23.1320   -9.7687 H   0  0  0  0  0  0  0  0  0  0  0  0
   16.5968  -21.1380   -8.4135 H   0  0  0  0  0  0  0  0  0  0  0  0
   14.2766  -22.4069   -9.8531 H   0  0  0  0  0  0  0  0  0  0  0  0
   16.0486  -20.3852   -8.6389 H   0  0  0  0  0  0  0  0  0  0  0  0
   15.2923  -19.6454   -8.8862 H   0  0  0  0  0  0  0  0  0  0  0  0
   14.1133  -22.7870   -9.9882 H   0  0  0  0  0  0  0  0  0  0  0  0
   14.8514  -21.8206   -9.4683 H   0  0  0  0  0  0  0  0  0  0  0  0
   12.9655  -23.9215  -10.7342 H   0  0  0  0  0  0  0  0  0  0  0  0
   13.8058  -23.3126  -10.2258 H   0  0  0  0  0  0  0  0  0  0  0  0
   12.5730  -24.0696  -10.9486 H   0  0  0  0  0  0  0  0  0  0  0  0
   10.9022  -25.9601  -12.0752 H   0  0  0  0  0  0  0  0  0  0  0  0
   12.4662  -25.1269  -11.1746 H   0  0  0  0  0  0  0  0  0  0  0  0
    9.8367  -24.4753  -12.3416 H   0  0  0  0  0  0  0  0  0  0  0  0
    9.4468  -24.5130  -12.5309 H   0  0  0  0  0  0  0  0  0  0  0  0
   10.6367  -24.7216  -11.9928 H   0  0  0  0  0  0  0  0  0  0  0  0
    7.8787  -24.0099  -13.2013 H   0  0  0  0  0  0  0  0  0  0  0  0
    8.8566  -24.4859  -12.8108 H   0  0  0  0  0  0  0  0  0  0  0  0
    6.3946  -22.8470  -13.7192 H   0  0  0  0  0  0  0  0  0  0  0  0
    7.3621  -23.6885  -13.3958 H   0  0  0  0  0  0  0  0  0  0  0  0
    5.3016  -21.2457  -13.9741 H   0  0  0  0  0  0  0  0  0  0  0  0
    5.9893  -22.3664  -13.8330 H   0  0  0  0  0  0  0  0  0  0  0  0
    4.7183  -19.3797  -13.9383 H   0  0  0  0  0  0  0  0  0  0  0  0
    5.0515  -20.6583  -13.9948 H   0  0  0  0  0  0  0  0  0  0  0  0
    4.7078  -17.4512  -13.6157 H   0  0  0  0  0  0  0  0  0  0  0  0
    4.6506  -18.7490  -13.8637 H   0  0  0  0  0  0  0  0  0  0  0  0
    4.8261  -16.7637  -13.4418 H   0  0  0  0  0  0  0  0  0  0  0  0
    4.1726  -15.3525  -13.5171 H   0  0  0  0  0  0  0  0  0  0  0  0
    7.2353  -13.4327  -11.7146 H   0  0  0  0  0  0  0  0  0  0  0  0
    8.7573  -12.8979  -10.8901 H   0  0  0  0  0  0  0  0  0  0  0  0
   11.0366  -13.0545   -9.8180 H   0  0  0  0  0  0  0  0  0  0  0  0
    9.0024  -12.1227  -10.6402 H   0  0  0  0  0  0  0  0  0  0  0  0
    8.9264  -13.5025  -10.9113 H   0  0  0  0  0  0  0  0  0  0  0  0
    9.6388  -10.2921  -10.0225 H   0  0  0  0  0  0  0  0  0  0  0  0
    9.0727  -11.4903  -10.4990 H   0  0  0  0  0  0  0  0  0  0  0  0
   12.5918  -10.1017   -8.5667 H   0  0  0  0  0  0  0  0  0  0  0  0
   10.4603   -7.6479   -9.1773 H   0  0  0  0  0  0  0  0  0  0  0  0
    9.5646   -9.2750   -9.8855 H   0  0  0  0  0  0  0  0  0  0  0  0
   11.7446   -7.2791   -8.4956 H   0  0  0  0  0  0  0  0  0  0  0  0
   13.5469   -8.3652   -6.3524 H   0  0  0  0  0  0  0  0  0  0  0  0
   14.8621   -7.9120   -8.1604 H   0  0  0  0  0  0  0  0  0  0  0  0
   14.8319   -9.5126   -7.3867 H   0  0  0  0  0  0  0  0  0  0  0  0
   13.3961   -7.6312   -7.7593 H   0  0  0  0  0  0  0  0  0  0  0  0
   15.1954  -10.1066   -7.3124 H   0  0  0  0  0  0  0  0  0  0  0  0
   14.5386   -9.2739   -7.4876 H   0  0  0  0  0  0  0  0  0  0  0  0
   16.2998  -11.5731   -7.0292 H   0  0  0  0  0  0  0  0  0  0  0  0
   15.5963  -10.3602   -7.1622 H   0  0  0  0  0  0  0  0  0  0  0  0
   16.6164  -13.7552   -7.2473 H   0  0  0  0  0  0  0  0  0  0  0  0
   16.5371  -12.3631   -7.0490 H   0  0  0  0  0  0  0  0  0  0  0  0
   15.9026  -15.7392   -7.9284 H   0  0  0  0  0  0  0  0  0  0  0  0
   16.4687  -14.5409   -7.4520 H   0  0  0  0  0  0  0  0  0  0  0  0
   14.5130  -16.9780   -8.8087 H   0  0  0  0  0  0  0  0  0  0  0  0
   15.4094  -16.3099   -8.2631 H   0  0  0  0  0  0  0  0  0  0  0  0
   14.0996  -15.2194   -8.7092 H   0  0  0  0  0  0  0  0  0  0  0  0
   15.0685  -17.2713   -8.5908 H   0  0  0  0  0  0  0  0  0  0  0  0
   14.6746  -16.1849   -8.5961 H   0  0  0  0  0  0  0  0  0  0  0  0
   15.3696  -19.1948   -8.7724 H   0  0  0  0  0  0  0  0  0  0  0  0
   15.2295  -17.8889   -8.6181 H   0  0  0  0  0  0  0  0  0  0  0  0
  1  2  1  0
  2  3  1  0
  3  4  1  0
  4  5  2  3
  4  6  1  0
  6  7  1  0
  6  8  1  0
  8  9  1  0
  9 10  1  0
 10 11  1  0
 11 12  1  0
 12 13  1  0
 13 14  1  0
 13 15  1  0
 15 16  1  0
 16 17  1  0
 17 18  1  0
 18 19  1  0
 19 20  1  0
 20 21  1  0
 21 22  1  0
 22 23  1  0
 23 24  1  0
 24 25  1  0
 25 26  1  0
 26 27  1  0
 27 28  1  0
 28 29  1  0
 29 30  1  0
 30 31  1  0
 31 32  1  0
 31 33  1  0
 33 34  1  0
 33 35  1  0
 35 36  1  0
 36 37  1  0
 37 38  1  0
 38 39  1  0
 39 40  1  0
 40 41  1  0
 41 42  1  0
 40 43  1  0
 43 44  2  0
 25 45  1  0
 42 10  1  0
 23 21  1  0
 45 24  1  0
 45 22  1  0
 45 23  1  0
 43 26  1  0
 33 29  1  0
  1 46  1  0
  1 47  1  0
  1 48  1  0
  2 49  1  0
  2 50  1  0
  3 51  1  0
  3 52  1  0
  5 53  1  0
  6 54  1  0
  7 55  1  0
  7 56  1  0
  7 57  1  0
  8 58  1  0
  8 59  1  0
  9 60  1  0
  9 61  1  0
 10 62  1  0
 11 63  1  0
 11 64  1  0
 12 65  1  0
 12 66  1  0
 13 67  1  0
 14 68  1  0
 14 69  1  0
 14 70  1  0
 15 71  1  0
 15 72  1  0
 16 73  1  0
 16 74  1  0
 17 75  1  0
 17 76  1  0
 18 77  1  0
 18 78  1  0
 19 79  1  0
 19 80  1  0
 20 81  1  0
 20 82  1  0
 21 83  1  0
 22 84  1  0
 24 85  1  0
 25 86  1  0
 26 87  1  0
 27 88  1  0
 27 89  1  0
 28 90  1  0
 28 91  1  0
 29 92  1  0
 30 93  1  0
 30 94  1  0
 31 95  1  0
 32 96  1  0
 32 97  1  0
 34 98  1  0
 34 99  1  0
 35100  1  0
 35101  1  0
 36102  1  0
 36103  1  0
 37104  1  0
 37105  1  0
 38106  1  0
 38107  1  0
 39108  1  0
 39109  1  0
 40110  1  0
 41111  1  0
 41112  1  0
 42113  1  0
 42114  1  0
M  END
