
     RDKit          2D

 64 69  0  0  0  0  0  0  0  0999 V2000
   12.2116  -20.2345  -12.7658 N   0  0  0  0  0  0  0  0  0  0  0  0
   13.0973  -19.6705  -11.6947 C   0  0  0  0  0  0  0  0  0  0  0  0
   13.9830  -19.1064  -10.6236 C   0  0  0  0  0  0  0  0  0  0  0  0
   14.8689  -18.5424   -9.5525 N   0  0  0  0  0  0  0  0  0  0  0  0
   15.1782  -19.3549   -8.3301 C   0  0  0  0  0  0  0  0  0  0  0  0
   16.4143  -20.0657   -8.7958 C   0  0  0  0  0  0  0  0  0  0  0  0
   17.6087  -20.9729   -8.7807 C   0  0  0  0  0  0  0  0  0  0  0  0
   18.8032  -21.8801   -8.7656 C   0  0  0  0  0  0  0  0  0  0  0  0
   19.1125  -22.6926   -7.5432 C   0  0  0  0  0  0  0  0  0  0  0  0
   20.3070  -23.5998   -7.5282 C   0  0  0  0  0  0  0  0  0  0  0  0
   21.1921  -23.6945   -8.7355 C   0  0  0  0  0  0  0  0  0  0  0  0
   20.8828  -22.8821   -9.9578 C   0  0  0  0  0  0  0  0  0  0  0  0
   19.6884  -21.9749   -9.9729 C   0  0  0  0  0  0  0  0  0  0  0  0
   19.3790  -21.1623  -11.1953 C   0  0  0  0  0  0  0  0  0  0  0  0
   19.0697  -20.3499  -12.4177 C   0  0  0  0  0  0  0  0  0  0  0  0
   18.7604  -19.5374  -13.6401 O   0  0  0  0  0  0  0  0  0  0  0  0
   15.8795  -20.3162   -7.4170 C   0  0  0  0  0  0  0  0  0  0  0  0
   14.9944  -20.2215   -6.2097 C   0  0  0  0  0  0  0  0  0  0  0  0
   14.1092  -20.1267   -5.0024 C   0  0  0  0  0  0  0  0  0  0  0  0
   14.8105  -21.0880   -4.0891 C   0  0  0  0  0  0  0  0  0  0  0  0
   15.5118  -22.0494   -3.1759 C   0  0  0  0  0  0  0  0  0  0  0  0
   16.5936  -21.5597   -2.2594 O   0  0  0  0  0  0  0  0  0  0  0  0
   15.1314  -23.5003   -3.1791 O   0  0  0  0  0  0  0  0  0  0  0  0
   15.8327  -24.4616   -2.2658 C   0  0  0  0  0  0  0  0  0  0  0  0
   15.1231  -25.7319   -2.6302 C   0  0  0  0  0  0  0  0  0  0  0  0
   15.4933  -27.0184   -1.9537 C   0  0  0  0  0  0  0  0  0  0  0  0
   16.5733  -27.0347   -0.9127 C   0  0  0  0  0  0  0  0  0  0  0  0
   16.2030  -25.7482   -1.5893 C   0  0  0  0  0  0  0  0  0  0  0  0
   12.9805  -19.6981   -4.1122 C   0  0  0  0  0  0  0  0  0  0  0  0
   13.1005  -19.1325   -5.4963 C   0  0  0  0  0  0  0  0  0  0  0  0
   11.6316  -21.6094  -12.6126 H   0  0  0  0  0  0  0  0  0  0  0  0
   11.9057  -19.4237  -13.9902 H   0  0  0  0  0  0  0  0  0  0  0  0
   14.1590  -19.3950  -12.7178 H   0  0  0  0  0  0  0  0  0  0  0  0
   12.0355  -19.9460  -10.6715 H   0  0  0  0  0  0  0  0  0  0  0  0
   15.1829  -19.6911  -11.3080 H   0  0  0  0  0  0  0  0  0  0  0  0
   12.7831  -18.5217   -9.9392 H   0  0  0  0  0  0  0  0  0  0  0  0
   15.4454  -17.1659   -9.7038 H   0  0  0  0  0  0  0  0  0  0  0  0
   13.9588  -18.7210   -7.7289 H   0  0  0  0  0  0  0  0  0  0  0  0
   16.5343  -19.5000  -10.1799 H   0  0  0  0  0  0  0  0  0  0  0  0
   17.7592  -20.5487   -9.9092 H   0  0  0  0  0  0  0  0  0  0  0  0
   17.4416  -21.4442   -7.5268 H   0  0  0  0  0  0  0  0  0  0  0  0
   18.2274  -22.5978   -6.3360 H   0  0  0  0  0  0  0  0  0  0  0  0
   20.6163  -24.4123   -6.3058 H   0  0  0  0  0  0  0  0  0  0  0  0
   22.3866  -24.6018   -8.7204 H   0  0  0  0  0  0  0  0  0  0  0  0
   21.7679  -22.9768  -11.1651 H   0  0  0  0  0  0  0  0  0  0  0  0
   18.3835  -20.6168  -10.7625 H   0  0  0  0  0  0  0  0  0  0  0  0
   20.5794  -21.7412  -11.8838 H   0  0  0  0  0  0  0  0  0  0  0  0
   17.8691  -19.7714  -11.7294 H   0  0  0  0  0  0  0  0  0  0  0  0
   20.2704  -20.9283  -13.1059 H   0  0  0  0  0  0  0  0  0  0  0  0
   19.6455  -19.6321  -14.8473 H   0  0  0  0  0  0  0  0  0  0  0  0
   16.7015  -21.2131   -6.8317 H   0  0  0  0  0  0  0  0  0  0  0  0
   15.9285  -20.7759   -5.6653 H   0  0  0  0  0  0  0  0  0  0  0  0
   13.9412  -19.5434   -7.0350 H   0  0  0  0  0  0  0  0  0  0  0  0
   15.8098  -21.2324   -4.7651 H   0  0  0  0  0  0  0  0  0  0  0  0
   13.8541  -21.1387   -3.1376 H   0  0  0  0  0  0  0  0  0  0  0  0
   16.7859  -23.5252   -1.5843 H   0  0  0  0  0  0  0  0  0  0  0  0
   14.0431  -25.7157   -3.6712 H   0  0  0  0  0  0  0  0  0  0  0  0
   14.7837  -28.2887   -2.3180 H   0  0  0  0  0  0  0  0  0  0  0  0
   16.5678  -28.4913   -0.5545 H   0  0  0  0  0  0  0  0  0  0  0  0
   17.6550  -26.5450    0.0038 H   0  0  0  0  0  0  0  0  0  0  0  0
   13.1251  -20.3604   -2.9447 H   0  0  0  0  0  0  0  0  0  0  0  0
   11.7444  -18.9873   -3.6466 H   0  0  0  0  0  0  0  0  0  0  0  0
   11.9061  -18.2253   -5.5114 H   0  0  0  0  0  0  0  0  0  0  0  0
   13.3487  -18.6557   -6.8967 H   0  0  0  0  0  0  0  0  0  0  0  0
  1  2  1  0
  2  3  1  0
  3  4  1  0
  4  5  1  0
  5  6  1  0
  6  7  1  0
  7  8  1  0
  8  9  2  0
  9 10  1  0
 10 11  2  0
 11 12  1  0
 12 13  2  0
 13 14  1  0
 14 15  1  0
 15 16  1  0
  6 17  1  0
 17 18  1  0
 18 19  1  0
 19 20  1  0
 20 21  1  0
 21 22  2  0
 21 23  1  0
 23 24  1  0
 24 25  1  0
 25 26  1  0
 26 27  1  0
 27 28  1  0
 19 29  1  0
 29 30  1  0
 17  5  1  0
 30 19  1  0
 13  8  1  0
 28 24  1  0
 28 25  1  0
 28 26  1  0
  1 31  1  0
  1 32  1  0
  2 33  1  0
  2 34  1  0
  3 35  1  0
  3 36  1  0
  4 37  1  0
  5 38  1  0
  6 39  1  0
  7 40  1  0
  7 41  1  0
  9 42  1  0
 10 43  1  0
 11 44  1  0
 12 45  1  0
 14 46  1  0
 14 47  1  0
 15 48  1  0
 15 49  1  0
 16 50  1  0
 17 51  1  0
 18 52  1  0
 18 53  1  0
 20 54  1  0
 20 55  1  0
 24 56  1  0
 25 57  1  0
 26 58  1  0
 27 59  1  0
 27 60  1  0
 29 61  1  0
 29 62  1  0
 30 63  1  0
 30 64  1  0
M  END
