
     RDKit          2D

103108  0  0  0  0  0  0  0  0999 V2000
   16.1093  -17.2969   -7.3275 C   0  0  0  0  0  0  0  0  0  0  0  0
   16.5718  -16.4335   -8.4636 C   0  0  0  0  0  0  0  0  0  0  0  0
   18.0534  -16.4023   -8.6961 C   0  0  0  0  0  0  0  0  0  0  0  0
   18.8205  -15.6453   -9.7393 C   0  0  0  0  0  0  0  0  0  0  0  0
   20.0685  -15.2079  -10.4474 C   0  0  0  0  0  0  0  0  0  0  0  0
   21.3164  -14.7705  -11.1553 As  0  0  0  0  0  3  0  0  0  0  0  0
   22.6534  -15.2760  -10.7002 C   0  0  0  0  0  0  0  0  0  0  0  0
   23.9902  -15.7816  -10.2450 C   0  0  0  0  0  0  0  0  0  0  0  0
   25.3270  -16.2871   -9.7899 C   0  0  0  0  0  0  0  0  0  0  0  0
   26.6640  -16.7927   -9.3347 C   0  0  0  0  0  0  0  0  0  0  0  0
   27.8325  -17.4529   -8.6649 C   0  0  0  0  0  0  0  0  0  0  0  0
   29.0805  -17.0155   -9.3729 S   0  0  0  0  0  0  0  0  0  0  0  0
   28.6832  -16.0850  -10.4803 C   0  0  0  0  0  0  0  0  0  0  0  0
   30.1581  -16.0255  -10.7471 C   0  0  0  0  0  0  0  0  0  0  0  0
   27.1898  -15.9472  -10.4567 C   0  0  0  0  0  0  0  0  0  0  0  0
   18.2957  -14.7326  -10.8078 C   0  0  0  0  0  0  0  0  0  0  0  0
   16.8740  -14.3515  -11.0969 C   0  0  0  0  0  0  0  0  0  0  0  0
   15.7937  -13.6335  -11.8502 C   0  0  0  0  0  0  0  0  0  0  0  0
   15.6260  -14.7890  -10.3888 C   0  0  0  0  0  0  0  0  0  0  0  0
   15.4915  -15.7155   -9.2170 C   0  0  0  0  0  0  0  0  0  0  0  0
   14.7244  -16.4725   -8.1737 O   0  0  0  0  0  0  0  0  0  0  0  0
   13.2295  -16.3628   -8.1150 O   0  0  0  0  0  0  0  0  0  0  0  0
   12.4622  -17.1198   -7.0718 C   0  0  0  0  0  0  0  0  0  0  0  0
   11.2736  -17.1739   -7.9852 N   0  0  0  0  0  0  0  0  0  0  0  0
   10.5065  -17.9308   -6.9419 C   0  0  0  0  0  0  0  0  0  0  0  0
    9.7392  -18.6878   -5.8986 C   0  0  0  0  0  0  0  0  0  0  0  0
   11.6950  -17.8767   -6.0285 C   0  0  0  0  0  0  0  0  0  0  0  0
   12.8837  -17.8226   -5.1152 N   0  0  0  0  0  0  0  0  0  0  0  0
   14.2961  -17.3958   -4.8452 C   0  0  0  0  0  0  0  0  0  0  0  0
   13.5300  -18.1556   -3.8031 C   0  0  0  0  0  0  0  0  0  0  0  0
   14.5675  -18.2342   -2.7227 C   0  0  0  0  0  0  0  0  0  0  0  0
   15.7898  -17.5327   -3.2364 F   0  0  0  0  0  0  0  0  0  0  0  0
   13.8014  -18.9940   -1.6807 C   0  0  0  0  0  0  0  0  0  0  0  0
   14.4477  -19.3270   -0.3687 C   0  0  0  0  0  0  0  0  0  0  0  0
   13.3213  -20.0594    0.2981 N   0  0  0  0  0  0  0  0  0  0  0  0
   13.4984  -20.6066    1.6834 C   0  0  0  0  0  0  0  0  0  0  0  0
   12.3719  -21.3391    2.3503 O   0  0  0  0  0  0  0  0  0  0  0  0
   12.0177  -20.2447   -0.4204 C   0  0  0  0  0  0  0  0  0  0  0  0
   10.7140  -20.4299   -1.1390 C   0  0  0  0  0  0  0  0  0  0  0  0
   15.2138  -18.5672   -1.4107 C   0  0  0  0  0  0  0  0  0  0  0  0
   16.6263  -18.1405   -1.1407 C   0  0  0  0  0  0  0  0  0  0  0  0
   18.0387  -17.7137   -0.8707 C   0  0  0  0  0  0  0  0  0  0  0  0
   19.4512  -17.2869   -0.6007 C   0  0  0  0  0  0  0  0  0  0  0  0
   20.8635  -16.8602   -0.3307 C   0  0  0  0  0  0  0  0  0  0  0  0
   14.6199  -17.2834   -7.1498 H   0  0  0  0  0  0  0  0  0  0  0  0
   17.1093  -18.0587   -6.5092 H   0  0  0  0  0  0  0  0  0  0  0  0
   19.4081  -16.8858   -8.2707 H   0  0  0  0  0  0  0  0  0  0  0  0
   17.9188  -17.3288   -7.5242 H   0  0  0  0  0  0  0  0  0  0  0  0
   20.0186  -16.2833   -9.1011 H   0  0  0  0  0  0  0  0  0  0  0  0
   20.8925  -16.0360   -9.5065 H   0  0  0  0  0  0  0  0  0  0  0  0
   19.4028  -14.3326  -11.4675 H   0  0  0  0  0  0  0  0  0  0  0  0
   21.2275  -13.8275  -12.3185 H   0  0  0  0  0  0  0  0  0  0  0  0
   21.9838  -16.0764   -9.6226 H   0  0  0  0  0  0  0  0  0  0  0  0
   23.3228  -14.4757  -11.7778 H   0  0  0  0  0  0  0  0  0  0  0  0
   23.3460  -17.0449   -9.7562 H   0  0  0  0  0  0  0  0  0  0  0  0
   24.6344  -14.5182  -10.7339 H   0  0  0  0  0  0  0  0  0  0  0  0
   25.5935  -15.8337  -10.3890 H   0  0  0  0  0  0  0  0  0  0  0  0
   24.6579  -17.0847   -8.7100 H   0  0  0  0  0  0  0  0  0  0  0  0
   25.8587  -17.5324   -8.3079 H   0  0  0  0  0  0  0  0  0  0  0  0
   26.7830  -18.0546   -7.7782 H   0  0  0  0  0  0  0  0  0  0  0  0
   28.7816  -18.2389   -7.8097 H   0  0  0  0  0  0  0  0  0  0  0  0
   28.5943  -15.1420  -11.6434 H   0  0  0  0  0  0  0  0  0  0  0  0
   31.6330  -15.9660  -11.0139 H   0  0  0  0  0  0  0  0  0  0  0  0
   29.9963  -14.6555  -11.3363 H   0  0  0  0  0  0  0  0  0  0  0  0
   30.3199  -17.3955  -10.1579 H   0  0  0  0  0  0  0  0  0  0  0  0
   27.4131  -15.0331  -11.6248 H   0  0  0  0  0  0  0  0  0  0  0  0
   26.4510  -15.7165  -10.6477 H   0  0  0  0  0  0  0  0  0  0  0  0
   18.6107  -13.8348  -11.9675 H   0  0  0  0  0  0  0  0  0  0  0  0
   19.7417  -14.5866  -11.1786 H   0  0  0  0  0  0  0  0  0  0  0  0
   17.4790  -13.5315  -12.1976 H   0  0  0  0  0  0  0  0  0  0  0  0
   14.7135  -12.9156  -12.6035 H   0  0  0  0  0  0  0  0  0  0  0  0
   16.8278  -13.0156  -12.7441 H   0  0  0  0  0  0  0  0  0  0  0  0
   14.6357  -14.1593  -11.0549 H   0  0  0  0  0  0  0  0  0  0  0  0
   14.1312  -14.7050  -10.2982 H   0  0  0  0  0  0  0  0  0  0  0  0
   14.9345  -13.9124  -11.3905 H   0  0  0  0  0  0  0  0  0  0  0  0
   14.0240  -15.4425   -9.3654 H   0  0  0  0  0  0  0  0  0  0  0  0
   13.6509  -17.0656   -6.1585 H   0  0  0  0  0  0  0  0  0  0  0  0
   10.9757  -16.6769   -9.3687 H   0  0  0  0  0  0  0  0  0  0  0  0
    9.3178  -17.9849   -7.8553 H   0  0  0  0  0  0  0  0  0  0  0  0
    8.9720  -19.4447   -4.8553 H   0  0  0  0  0  0  0  0  0  0  0  0
    8.4817  -18.5147   -6.6978 H   0  0  0  0  0  0  0  0  0  0  0  0
   10.8939  -18.9518   -4.9782 H   0  0  0  0  0  0  0  0  0  0  0  0
   11.0785  -18.6214   -4.8817 H   0  0  0  0  0  0  0  0  0  0  0  0
   14.4390  -16.7434   -6.1883 H   0  0  0  0  0  0  0  0  0  0  0  0
   15.6568  -17.1219   -4.2764 H   0  0  0  0  0  0  0  0  0  0  0  0
   12.4036  -18.8880   -3.1364 H   0  0  0  0  0  0  0  0  0  0  0  0
   12.4079  -19.3407   -2.1143 H   0  0  0  0  0  0  0  0  0  0  0  0
   15.4852  -19.4056    0.7118 H   0  0  0  0  0  0  0  0  0  0  0  0
   14.8020  -20.4214    2.4020 H   0  0  0  0  0  0  0  0  0  0  0  0
   12.4028  -19.5340   -1.6840 H   0  0  0  0  0  0  0  0  0  0  0  0
   11.4695  -20.9834    0.7644 H   0  0  0  0  0  0  0  0  0  0  0  0
    9.4105  -20.6151   -1.8576 H   0  0  0  0  0  0  0  0  0  0  0  0
   10.1740  -21.1890    0.0366 H   0  0  0  0  0  0  0  0  0  0  0  0
   11.2542  -19.6708   -2.3145 H   0  0  0  0  0  0  0  0  0  0  0  0
   16.5597  -18.7781    0.2154 H   0  0  0  0  0  0  0  0  0  0  0  0
   16.6928  -17.5028   -2.4968 H   0  0  0  0  0  0  0  0  0  0  0  0
   18.1054  -17.0764   -2.2269 H   0  0  0  0  0  0  0  0  0  0  0  0
   17.9720  -18.3510    0.4856 H   0  0  0  0  0  0  0  0  0  0  0  0
   19.5282  -16.6763   -1.9687 H   0  0  0  0  0  0  0  0  0  0  0  0
   19.3740  -17.8975    0.7672 H   0  0  0  0  0  0  0  0  0  0  0  0
   22.2760  -16.4335   -0.0605 H   0  0  0  0  0  0  0  0  0  0  0  0
   20.7977  -17.4998    1.0246 H   0  0  0  0  0  0  0  0  0  0  0  0
   20.9295  -16.2206   -1.6858 H   0  0  0  0  0  0  0  0  0  0  0  0
  1  2  2  3
  2  3  1  0
  3  4  1  0
  4  5  1  0
  5  6  1  0
  6  7  1  0
  7  8  1  0
  8  9  1  0
  9 10  1  0
 10 11  1  0
 11 12  1  0
 12 13  1  0
 13 14  1  0
 13 15  1  0
  4 16  1  0
 16 17  1  0
 17 18  1  0
 17 19  1  0
 19 20  1  0
 20 21  1  0
 21 22  1  0
 22 23  1  0
 23 24  1  0
 24 25  1  0
 25 26  1  0
 25 27  1  0
 27 28  1  0
 28 29  1  0
 29 30  1  0
 30 31  1  0
 31 32  1  0
 31 33  1  0
 33 34  1  0
 34 35  1  0
 35 36  1  0
 36 37  2  0
 35 38  1  0
 38 39  1  0
 34 40  1  0
 40 41  1  0
 41 42  1  0
 42 43  1  0
 43 44  1  0
 20  2  1  0
 27 23  1  0
 30 28  1  0
 40 31  1  0
 15 10  1  0
 40 33  1  0
  1 45  1  0
  1 46  1  0
  3 47  1  0
  3 48  1  0
  4 49  1  0
  5 50  1  0
  5 51  1  0
  6 52  1  0
  7 53  1  0
  7 54  1  0
  8 55  1  0
  8 56  1  0
  9 57  1  0
  9 58  1  0
 10 59  1  0
 11 60  1  0
 11 61  1  0
 13 62  1  0
 14 63  1  0
 14 64  1  0
 14 65  1  0
 15 66  1  0
 15 67  1  0
 16 68  1  0
 16 69  1  0
 17 70  1  0
 18 71  1  0
 18 72  1  0
 18 73  1  0
 19 74  1  0
 19 75  1  0
 20 76  1  0
 23 77  1  0
 24 78  1  0
 25 79  1  0
 26 80  1  0
 26 81  1  0
 26 82  1  0
 27 83  1  0
 29 84  1  0
 29 85  1  0
 30 86  1  0
 33 87  1  0
 34 88  1  0
 36 89  1  0
 38 90  1  0
 38 91  1  0
 39 92  1  0
 39 93  1  0
 39 94  1  0
 41 95  1  0
 41 96  1  0
 42 97  1  0
 42 98  1  0
 43 99  1  0
 43100  1  0
 44101  1  0
 44102  1  0
 44103  1  0
M  END
