
     RDKit          2D

 33 34  0  0  0  0  0  0  0  0999 V2000
   13.7507  -22.8049   -0.1631 O   0  0  0  0  0  0  0  0  0  0  0  0
   14.4928  -22.4437   -1.4156 C   0  0  0  0  0  0  0  0  0  0  0  0
   14.2736  -20.9599   -1.4295 C   0  0  0  0  0  0  0  0  0  0  0  0
   15.0693  -21.6108   -2.5219 N   0  0  0  0  0  0  0  0  0  0  0  0
   15.8615  -21.5058   -3.7913 C   0  0  0  0  0  0  0  0  0  0  0  0
   16.6537  -21.4007   -5.0607 C   0  0  0  0  0  0  0  0  0  0  0  0
   17.4460  -21.2956   -6.3301 As  0  0  0  0  0  3  0  0  0  0  0  0
   17.6525  -19.9580   -6.9768 C   0  0  0  0  0  0  0  0  0  0  0  0
   17.4934  -18.4704   -7.0853 C   0  0  0  0  0  0  0  0  0  0  0  0
   18.0246  -17.5477   -8.1420 N   0  0  0  0  0  0  0  0  0  0  0  0
   18.8461  -17.8847   -9.3508 C   0  0  0  0  0  0  0  0  0  0  0  0
   19.3394  -19.2276   -9.8018 C   0  0  0  0  0  0  0  0  0  0  0  0
   19.1328  -20.5652   -9.1552 C   0  0  0  0  0  0  0  0  0  0  0  0
   18.3821  -20.8902   -7.8979 C   0  0  0  0  0  0  0  0  0  0  0  0
   13.6857  -24.2351    0.2842 H   0  0  0  0  0  0  0  0  0  0  0  0
   14.9697  -23.8021   -1.8366 H   0  0  0  0  0  0  0  0  0  0  0  0
   14.3387  -19.5296   -1.8769 H   0  0  0  0  0  0  0  0  0  0  0  0
   13.4554  -20.8057   -0.1819 H   0  0  0  0  0  0  0  0  0  0  0  0
   16.0836  -22.9891   -3.7755 H   0  0  0  0  0  0  0  0  0  0  0  0
   15.6395  -20.0223   -3.8071 H   0  0  0  0  0  0  0  0  0  0  0  0
   16.8762  -22.8840   -5.0446 H   0  0  0  0  0  0  0  0  0  0  0  0
   16.3363  -19.9412   -4.9220 H   0  0  0  0  0  0  0  0  0  0  0  0
   17.7812  -22.1649   -6.6471 H   0  0  0  0  0  0  0  0  0  0  0  0
   16.8400  -19.4469   -5.8240 H   0  0  0  0  0  0  0  0  0  0  0  0
   16.6978  -17.8194   -5.9929 H   0  0  0  0  0  0  0  0  0  0  0  0
   18.6870  -16.3971   -9.4595 H   0  0  0  0  0  0  0  0  0  0  0  0
   19.5505  -17.3851  -10.5773 H   0  0  0  0  0  0  0  0  0  0  0  0
   19.9431  -18.4540  -10.9363 H   0  0  0  0  0  0  0  0  0  0  0  0
   20.1097  -20.0116  -10.8226 H   0  0  0  0  0  0  0  0  0  0  0  0
   19.9453  -21.0763  -10.3079 H   0  0  0  0  0  0  0  0  0  0  0  0
   19.3890  -22.0424   -9.2015 H   0  0  0  0  0  0  0  0  0  0  0  0
   18.7915  -22.3011   -8.2008 H   0  0  0  0  0  0  0  0  0  0  0  0
   18.2042  -21.7298   -7.4162 H   0  0  0  0  0  0  0  0  0  0  0  0
  1  2  1  0
  2  3  1  0
  3  4  1  0
  4  5  1  0
  5  6  1  0
  6  7  1  0
  7  8  1  0
  8  9  1  0
  9 10  2  0
 10 11  1  0
 11 12  1  0
 12 13  1  0
 13 14  1  0
  4  2  1  0
 14  8  1  0
  1 15  1  0
  2 16  1  0
  3 17  1  0
  3 18  1  0
  5 19  1  0
  5 20  1  0
  6 21  1  0
  6 22  1  0
  7 23  1  0
  8 24  1  0
  9 25  1  0
 11 26  1  0
 11 27  1  0
 12 28  1  0
 12 29  1  0
 13 30  1  0
 13 31  1  0
 14 32  1  0
 14 33  1  0
M  END
