
     RDKit          2D

 27 30  0  0  0  0  0  0  0  0999 V2000
   18.1908  -19.7291  -12.9483 C   0  0  0  0  0  0  0  0  0  0  0  0
   17.0822  -19.3882  -11.9970 C   0  0  0  0  0  0  0  0  0  0  0  0
   15.9272  -19.3318  -12.9525 C   0  0  0  0  0  0  0  0  0  0  0  0
   15.7062  -19.0689  -11.4923 C   0  0  0  0  0  0  0  0  0  0  0  0
   15.9984  -18.8961  -10.0312 C   0  0  0  0  0  0  0  0  0  0  0  0
   14.6224  -18.5767   -9.5265 C   0  0  0  0  0  0  0  0  0  0  0  0
   15.5444  -18.9129  -10.6609 C   0  0  0  0  0  0  0  0  0  0  0  0
   16.6994  -18.9693   -9.7054 C   0  0  0  0  0  0  0  0  0  0  0  0
   15.7773  -18.6331   -8.5710 C   0  0  0  0  0  0  0  0  0  0  0  0
   14.4014  -18.3138   -8.0663 C   0  0  0  0  0  0  0  0  0  0  0  0
   14.6935  -18.1410   -6.6052 C   0  0  0  0  0  0  0  0  0  0  0  0
   19.2994  -20.0699  -13.8995 H   0  0  0  0  0  0  0  0  0  0  0  0
   17.4177  -19.9298  -14.0366 H   0  0  0  0  0  0  0  0  0  0  0  0
   19.1923  -19.5462  -11.8467 H   0  0  0  0  0  0  0  0  0  0  0  0
   18.1345  -19.4093  -10.9283 H   0  0  0  0  0  0  0  0  0  0  0  0
   14.5266  -19.1638  -13.4622 H   0  0  0  0  0  0  0  0  0  0  0  0
   16.4169  -19.6063  -14.1802 H   0  0  0  0  0  0  0  0  0  0  0  0
   14.9246  -18.9464  -11.5898 H   0  0  0  0  0  0  0  0  0  0  0  0
   17.4758  -19.1554  -10.0284 H   0  0  0  0  0  0  0  0  0  0  0  0
   16.4954  -19.1881  -11.3652 H   0  0  0  0  0  0  0  0  0  0  0  0
   14.8754  -18.8613  -11.0913 H   0  0  0  0  0  0  0  0  0  0  0  0
   17.8543  -19.0257   -8.7500 H   0  0  0  0  0  0  0  0  0  0  0  0
   17.8734  -19.3091  -10.5749 H   0  0  0  0  0  0  0  0  0  0  0  0
   12.9239  -18.0545   -8.0691 H   0  0  0  0  0  0  0  0  0  0  0  0
   14.9855  -17.9681   -5.1441 H   0  0  0  0  0  0  0  0  0  0  0  0
   13.2447  -17.8477   -6.3502 H   0  0  0  0  0  0  0  0  0  0  0  0
   16.1423  -18.4342   -6.8602 H   0  0  0  0  0  0  0  0  0  0  0  0
  1  2  1  0
  2  3  1  0
  3  4  1  0
  4  5  1  0
  5  6  1  0
  6  7  1  0
  7  8  1  0
  8  9  1  0
  9 10  1  0
 10 11  1  0
  4  2  1  0
  9  5  1  0
  9  6  1  0
 10  6  1  0
  1 12  1  0
  1 13  1  0
  1 14  1  0
  2 15  1  0
  3 16  1  0
  3 17  1  0
  4 18  1  0
  5 19  1  0
  7 20  1  0
  7 21  1  0
  8 22  1  0
  8 23  1  0
 10 24  1  0
 11 25  1  0
 11 26  1  0
 11 27  1  0
M  END
