
     RDKit          2D

 60 67  0  0  0  0  0  0  0  0999 V2000
   19.0438  -20.6226  -17.2875 C   0  0  0  0  0  0  0  0  0  0  0  0
   18.6511  -20.7405  -15.8445 C   0  0  0  0  0  0  0  0  0  0  0  0
   19.8149  -19.8224  -15.6157 C   0  0  0  0  0  0  0  0  0  0  0  0
   19.9155  -19.5596  -14.1424 C   0  0  0  0  0  0  0  0  0  0  0  0
   18.8138  -20.3153  -13.4606 C   0  0  0  0  0  0  0  0  0  0  0  0
   17.8324  -20.9461  -12.5176 C   0  0  0  0  0  0  0  0  0  0  0  0
   18.5157  -20.2794  -11.3606 C   0  0  0  0  0  0  0  0  0  0  0  0
   17.5344  -20.9101  -10.4176 C   0  0  0  0  0  0  0  0  0  0  0  0
   16.8511  -21.5769  -11.5746 C   0  0  0  0  0  0  0  0  0  0  0  0
   16.1679  -22.2436  -12.7316 O   0  0  0  0  0  0  0  0  0  0  0  0
   16.3825  -21.7257   -9.9097 C   0  0  0  0  0  0  0  0  0  0  0  0
   15.1956  -22.5949   -9.6166 O   0  0  0  0  0  0  0  0  0  0  0  0
   15.9151  -21.9051   -8.4957 C   0  0  0  0  0  0  0  0  0  0  0  0
   14.9089  -22.5603   -7.5966 O   0  0  0  0  0  0  0  0  0  0  0  0
   16.4842  -21.3131   -7.2404 Si  0  0  0  0  0  4  0  0  0  0  0  0
   17.6612  -20.3956   -7.0890 C   0  0  0  0  0  0  0  0  0  0  0  0
   18.5598  -19.8435   -8.1556 C   0  0  0  0  0  0  0  0  0  0  0  0
   19.7542  -18.9547   -8.3385 C   0  0  0  0  0  0  0  0  0  0  0  0
   20.9486  -18.0659   -8.5214 C   0  0  0  0  0  0  0  0  0  0  0  0
   22.1430  -17.1772   -8.7043 C   0  0  0  0  0  0  0  0  0  0  0  0
   22.0866  -17.4061  -10.1856 C   0  0  0  0  0  0  0  0  0  0  0  0
   22.0302  -17.6351  -11.6670 C   0  0  0  0  0  0  0  0  0  0  0  0
   20.8922  -18.2949  -10.0027 N   0  0  0  0  0  0  0  0  0  0  0  0
   19.6978  -19.1837   -9.8199 C   0  0  0  0  0  0  0  0  0  0  0  0
   19.0517  -19.8264  -11.0114 C   0  0  0  0  0  0  0  0  0  0  0  0
   18.5034  -20.0725   -9.6370 C   0  0  0  0  0  0  0  0  0  0  0  0
   18.0323  -21.0452  -14.5126 C   0  0  0  0  0  0  0  0  0  0  0  0
   19.4364  -20.5047  -18.7303 H   0  0  0  0  0  0  0  0  0  0  0  0
   17.8920  -21.5029  -17.6727 H   0  0  0  0  0  0  0  0  0  0  0  0
   19.6767  -20.1506  -17.1776 H   0  0  0  0  0  0  0  0  0  0  0  0
   17.5692  -21.6340  -16.3749 H   0  0  0  0  0  0  0  0  0  0  0  0
   21.0101  -18.9197  -15.6987 H   0  0  0  0  0  0  0  0  0  0  0  0
   19.9706  -19.8021  -16.3973 H   0  0  0  0  0  0  0  0  0  0  0  0
   20.3983  -19.0247  -12.8269 H   0  0  0  0  0  0  0  0  0  0  0  0
   21.0896  -18.7119  -14.5332 H   0  0  0  0  0  0  0  0  0  0  0  0
   19.6263  -19.5665  -12.4462 H   0  0  0  0  0  0  0  0  0  0  0  0
   17.0346  -21.6848  -13.5510 H   0  0  0  0  0  0  0  0  0  0  0  0
   19.4161  -19.4798  -10.4661 H   0  0  0  0  0  0  0  0  0  0  0  0
   19.4970  -19.6486  -12.3035 H   0  0  0  0  0  0  0  0  0  0  0  0
   15.7939  -22.2842  -10.7796 H   0  0  0  0  0  0  0  0  0  0  0  0
   14.9768  -23.1237  -12.4934 H   0  0  0  0  0  0  0  0  0  0  0  0
   16.0075  -22.1848  -11.2875 H   0  0  0  0  0  0  0  0  0  0  0  0
   14.8194  -22.4414   -6.1040 H   0  0  0  0  0  0  0  0  0  0  0  0
   15.3800  -22.0713   -6.5652 H   0  0  0  0  0  0  0  0  0  0  0  0
   16.3946  -21.1942   -5.7478 H   0  0  0  0  0  0  0  0  0  0  0  0
   17.3314  -20.4639   -5.6273 H   0  0  0  0  0  0  0  0  0  0  0  0
   18.5376  -19.6100   -6.1592 H   0  0  0  0  0  0  0  0  0  0  0  0
   19.1393  -19.2446   -6.9084 H   0  0  0  0  0  0  0  0  0  0  0  0
   19.8107  -18.7257   -6.8572 H   0  0  0  0  0  0  0  0  0  0  0  0
   21.0050  -17.8370   -7.0401 H   0  0  0  0  0  0  0  0  0  0  0  0
   23.3374  -16.2883   -8.8872 H   0  0  0  0  0  0  0  0  0  0  0  0
   22.1995  -16.9482   -7.2229 H   0  0  0  0  0  0  0  0  0  0  0  0
   23.2810  -16.5173  -10.3685 H   0  0  0  0  0  0  0  0  0  0  0  0
   21.9737  -17.8640  -13.1483 H   0  0  0  0  0  0  0  0  0  0  0  0
   23.2383  -16.7646  -11.8475 H   0  0  0  0  0  0  0  0  0  0  0  0
   20.8219  -18.5055  -11.4864 H   0  0  0  0  0  0  0  0  0  0  0  0
   20.1627  -19.0605  -11.6664 H   0  0  0  0  0  0  0  0  0  0  0  0
   18.3040  -20.5340  -12.1023 H   0  0  0  0  0  0  0  0  0  0  0  0
   17.0798  -21.8750  -15.3214 H   0  0  0  0  0  0  0  0  0  0  0  0
   17.1142  -21.6154  -13.4724 H   0  0  0  0  0  0  0  0  0  0  0  0
  1  2  1  0
  2  3  1  0
  3  4  1  0
  4  5  1  0
  5  6  1  0
  6  7  1  0
  7  8  1  0
  8  9  1  0
  9 10  1  0
  8 11  1  0
 11 12  1  0
 12 13  1  0
 13 14  1  0
 13 15  1  0
 15 16  1  0
 16 17  1  0
 17 18  1  0
 18 19  1  0
 19 20  1  0
 20 21  1  0
 21 22  1  0
 21 23  1  0
 23 24  1  0
 24 25  1  0
 25 26  1  0
  5 27  1  0
 27  2  1  0
  9  6  1  0
 13 11  1  0
 26 17  1  0
 26  8  1  0
 24 18  1  0
 23 19  1  0
 26 24  1  0
  1 28  1  0
  1 29  1  0
  1 30  1  0
  2 31  1  0
  3 32  1  0
  3 33  1  0
  4 34  1  0
  4 35  1  0
  5 36  1  0
  6 37  1  0
  7 38  1  0
  7 39  1  0
  9 40  1  0
 10 41  1  0
 11 42  1  0
 14 43  1  0
 15 44  1  0
 15 45  1  0
 16 46  1  0
 16 47  1  0
 17 48  1  0
 18 49  1  0
 19 50  1  0
 20 51  1  0
 20 52  1  0
 21 53  1  0
 22 54  1  0
 22 55  1  0
 22 56  1  0
 25 57  1  0
 25 58  1  0
 27 59  1  0
 27 60  1  0
M  END
