
     RDKit          2D

 58 59  0  0  0  0  0  0  0  0999 V2000
       nan       nan       nan C   0  0  0  0  0  0  0  0  0  0  0  0
       nan       nan       nan C   0  0  0  0  0  0  0  0  0  0  0  0
       nan       nan       nan C   0  0  0  0  0  0  0  0  0  0  0  0
       nan       nan       nan C   0  0  0  0  0  0  0  0  0  0  0  0
       nan       nan       nan C   0  0  0  0  0  0  0  0  0  0  0  0
       nan       nan       nan C   0  0  0  0  0  0  0  0  0  0  0  0
       nan       nan       nan C   0  0  0  0  0  0  0  0  0  0  0  0
       nan       nan       nan C   0  0  0  0  0  0  0  0  0  0  0  0
   -0.0047   29.8589    4.8553 C   0  0  0  0  0  0  0  0  0  0  0  0
    1.4387   29.4815    5.0109 C   0  0  0  0  0  0  0  0  0  0  0  0
    1.3249   27.9869    4.9519 C   0  0  0  0  0  0  0  0  0  0  0  0
    1.2112   26.4924    4.8930 C   0  0  0  0  0  0  0  0  0  0  0  0
    2.6975   26.3728    5.0559 Br  0  0  0  0  0  0  0  0  0  0  0  0
    1.0975   24.9979    4.8341 C   0  0  0  0  0  0  0  0  0  0  0  0
    0.9837   23.5033    4.7751 C   0  0  0  0  0  0  0  0  0  0  0  0
    1.0374   30.9268    5.0087 C   0  0  0  0  0  0  0  0  0  0  0  0
   -0.4060   31.3042    4.8531 C   0  0  0  0  0  0  0  0  0  0  0  0
   -0.2922   32.7987    4.9120 C   0  0  0  0  0  0  0  0  0  0  0  0
   -1.7784   32.9183    4.7476 F   0  0  0  0  0  0  0  0  0  0  0  0
   -0.1785   34.2932    4.9709 C   0  0  0  0  0  0  0  0  0  0  0  0
   -0.0647   35.7878    5.0299 O   0  0  0  0  0  0  0  0  0  0  0  0
   -1.2945   36.6387    4.9135 C   0  0  0  0  0  0  0  0  0  0  0  0
       nan       nan       nan N   0  0  0  0  0  0  0  0  0  0  0  0
       nan       nan       nan I   0  0  0  0  0  0  0  0  0  0  0  0
       nan       nan       nan H   0  0  0  0  0  0  0  0  0  0  0  0
       nan       nan       nan H   0  0  0  0  0  0  0  0  0  0  0  0
       nan       nan       nan H   0  0  0  0  0  0  0  0  0  0  0  0
       nan       nan       nan H   0  0  0  0  0  0  0  0  0  0  0  0
       nan       nan       nan H   0  0  0  0  0  0  0  0  0  0  0  0
       nan       nan       nan H   0  0  0  0  0  0  0  0  0  0  0  0
       nan       nan       nan H   0  0  0  0  0  0  0  0  0  0  0  0
       nan       nan       nan H   0  0  0  0  0  0  0  0  0  0  0  0
       nan       nan       nan H   0  0  0  0  0  0  0  0  0  0  0  0
       nan       nan       nan H   0  0  0  0  0  0  0  0  0  0  0  0
       nan       nan       nan H   0  0  0  0  0  0  0  0  0  0  0  0
       nan       nan       nan H   0  0  0  0  0  0  0  0  0  0  0  0
       nan       nan       nan H   0  0  0  0  0  0  0  0  0  0  0  0
       nan       nan       nan H   0  0  0  0  0  0  0  0  0  0  0  0
       nan       nan       nan H   0  0  0  0  0  0  0  0  0  0  0  0
       nan       nan       nan H   0  0  0  0  0  0  0  0  0  0  0  0
    2.9216   29.6231    5.1869 H   0  0  0  0  0  0  0  0  0  0  0  0
    2.8115   27.8674    5.1127 H   0  0  0  0  0  0  0  0  0  0  0  0
    0.4455   27.9493    4.8534 H   0  0  0  0  0  0  0  0  0  0  0  0
   -0.1290   26.4352    4.7411 H   0  0  0  0  0  0  0  0  0  0  0  0
    2.5895   24.8805    4.9333 H   0  0  0  0  0  0  0  0  0  0  0  0
   -0.3947   25.1153    4.7349 H   0  0  0  0  0  0  0  0  0  0  0  0
    0.8700   22.0089    4.7162 H   0  0  0  0  0  0  0  0  0  0  0  0
    2.4671   23.3831    4.9619 H   0  0  0  0  0  0  0  0  0  0  0  0
   -0.4997   23.6237    4.5883 H   0  0  0  0  0  0  0  0  0  0  0  0
    2.0795   31.9947    5.1621 H   0  0  0  0  0  0  0  0  0  0  0  0
   -1.8888   31.1625    4.6770 H   0  0  0  0  0  0  0  0  0  0  0  0
    1.1939   32.6791    5.0764 H   0  0  0  0  0  0  0  0  0  0  0  0
   -1.6638   34.4131    4.7992 H   0  0  0  0  0  0  0  0  0  0  0  0
    1.3069   34.1734    5.1427 H   0  0  0  0  0  0  0  0  0  0  0  0
   -2.5243   37.4897    4.7972 H   0  0  0  0  0  0  0  0  0  0  0  0
   -2.1370   35.4041    4.7875 H   0  0  0  0  0  0  0  0  0  0  0  0
   -0.4520   37.8734    5.0396 H   0  0  0  0  0  0  0  0  0  0  0  0
       nan       nan       nan H   0  0  0  0  0  0  0  0  0  0  0  0
  1  2  1  0
  2  3  1  0
  3  4  1  0
  4  5  1  0
  5  6  1  0
  6  7  1  0
  7  8  1  0
  8  9  1  0
  9 10  1  0
 10 11  1  0
 11 12  1  0
 12 13  1  0
 12 14  1  0
 14 15  1  0
 10 16  1  0
 16 17  1  0
 17 18  1  0
 18 19  1  0
 18 20  1  0
 20 21  1  0
 21 22  1  0
  7 23  1  0
 23 24  1  0
 16  9  1  0
 17  9  1  0
  1 25  1  0
  1 26  1  0
  1 27  1  0
  2 28  1  0
  2 29  1  0
  3 30  1  0
  3 31  1  0
  4 32  1  0
  4 33  1  0
  5 34  1  0
  5 35  1  0
  6 36  1  0
  6 37  1  0
  7 38  1  0
  8 39  1  0
  8 40  1  0
 10 41  1  0
 11 42  1  0
 11 43  1  0
 12 44  1  0
 14 45  1  0
 14 46  1  0
 15 47  1  0
 15 48  1  0
 15 49  1  0
 16 50  1  0
 17 51  1  0
 18 52  1  0
 20 53  1  0
 20 54  1  0
 22 55  1  0
 22 56  1  0
 22 57  1  0
 23 58  1  0
M  END
