
     RDKit          2D

 43 46  0  0  0  0  0  0  0  0999 V2000
   23.4634  -17.5833   -9.6993 C   0  0  0  0  0  0  0  0  0  0  0  0
   22.6927  -18.8024  -10.1117 C   0  0  0  0  0  0  0  0  0  0  0  0
   23.3756  -19.8991  -10.8738 C   0  0  0  0  0  0  0  0  0  0  0  0
   21.2392  -18.9247   -9.7620 C   0  0  0  0  0  0  0  0  0  0  0  0
   19.7856  -19.0470   -9.4123 C   0  0  0  0  0  0  0  0  0  0  0  0
   18.3321  -19.1692   -9.0627 C   0  0  0  0  0  0  0  0  0  0  0  0
   16.8786  -19.2915   -8.7130 C   0  0  0  0  0  0  0  0  0  0  0  0
   16.4725  -19.7278   -7.3365 C   0  0  0  0  0  0  0  0  0  0  0  0
   15.3988  -20.0504   -6.3399 C   0  0  0  0  0  0  0  0  0  0  0  0
   14.3514  -19.7363   -7.3667 C   0  0  0  0  0  0  0  0  0  0  0  0
   15.4250  -19.4138   -8.3633 C   0  0  0  0  0  0  0  0  0  0  0  0
   15.8311  -18.9774   -9.7398 C   0  0  0  0  0  0  0  0  0  0  0  0
   14.4797  -18.7927  -10.3637 O   0  0  0  0  0  0  0  0  0  0  0  0
   14.3675  -18.3448  -11.7909 N   0  0  0  0  0  0  0  0  0  0  0  0
   13.0160  -18.1600  -12.4149 C   0  0  0  0  0  0  0  0  0  0  0  0
   12.3654  -18.5724  -11.1279 Cl  0  0  0  0  0  0  0  0  0  0  0  0
   11.6645  -17.9753  -13.0390 C   0  0  0  0  0  0  0  0  0  0  0  0
   10.1721  -17.9421  -13.1851 C   0  0  0  0  0  0  0  0  0  0  0  0
   10.7890  -18.3474  -11.8793 C   0  0  0  0  0  0  0  0  0  0  0  0
   24.9169  -17.4610  -10.0490 H   0  0  0  0  0  0  0  0  0  0  0  0
   22.7805  -16.4866   -8.9372 H   0  0  0  0  0  0  0  0  0  0  0  0
   24.0586  -20.9959  -11.6359 H   0  0  0  0  0  0  0  0  0  0  0  0
   23.0033  -19.2334  -12.1654 H   0  0  0  0  0  0  0  0  0  0  0  0
   23.7479  -20.5648   -9.5822 H   0  0  0  0  0  0  0  0  0  0  0  0
   20.8716  -18.2734  -11.0623 H   0  0  0  0  0  0  0  0  0  0  0  0
   21.6068  -19.5759   -8.4618 H   0  0  0  0  0  0  0  0  0  0  0  0
   20.1540  -19.6745   -8.1007 H   0  0  0  0  0  0  0  0  0  0  0  0
   19.4173  -18.4194  -10.7240 H   0  0  0  0  0  0  0  0  0  0  0  0
   17.9645  -18.5183  -10.3631 H   0  0  0  0  0  0  0  0  0  0  0  0
   18.6997  -19.8202   -7.7622 H   0  0  0  0  0  0  0  0  0  0  0  0
   17.7621  -19.9477   -6.6026 H   0  0  0  0  0  0  0  0  0  0  0  0
   14.3251  -20.3729   -5.3433 H   0  0  0  0  0  0  0  0  0  0  0  0
   16.4463  -20.3644   -5.3131 H   0  0  0  0  0  0  0  0  0  0  0  0
   13.3040  -19.4222   -8.3935 H   0  0  0  0  0  0  0  0  0  0  0  0
   13.2777  -20.0588   -6.3701 H   0  0  0  0  0  0  0  0  0  0  0  0
   16.7067  -18.6053  -10.8995 H   0  0  0  0  0  0  0  0  0  0  0  0
   15.6066  -18.0816  -12.5941 H   0  0  0  0  0  0  0  0  0  0  0  0
   13.7455  -17.8120  -13.4962 H   0  0  0  0  0  0  0  0  0  0  0  0
   12.0708  -17.5390  -14.4155 H   0  0  0  0  0  0  0  0  0  0  0  0
   10.0599  -17.4942  -14.6123 H   0  0  0  0  0  0  0  0  0  0  0  0
    8.7184  -18.0644  -12.8355 H   0  0  0  0  0  0  0  0  0  0  0  0
    9.5496  -18.6105  -11.0762 H   0  0  0  0  0  0  0  0  0  0  0  0
   11.6067  -18.6633  -10.8526 H   0  0  0  0  0  0  0  0  0  0  0  0
  1  2  2  3
  2  3  1  0
  2  4  1  0
  4  5  1  0
  5  6  1  0
  6  7  1  0
  7  8  1  0
  8  9  1  0
  9 10  1  0
 10 11  1  0
 11 12  1  0
 12 13  1  0
 13 14  1  0
 14 15  1  0
 15 16  1  0
 15 17  1  0
 17 18  1  0
 18 19  1  0
 11  7  1  0
 19 17  1  0
 12  7  1  0
 11  8  1  0
  1 20  1  0
  1 21  1  0
  3 22  1  0
  3 23  1  0
  3 24  1  0
  4 25  1  0
  4 26  1  0
  5 27  1  0
  5 28  1  0
  6 29  1  0
  6 30  1  0
  8 31  1  0
  9 32  1  0
  9 33  1  0
 10 34  1  0
 10 35  1  0
 12 36  1  0
 14 37  1  0
 15 38  1  0
 17 39  1  0
 18 40  1  0
 18 41  1  0
 19 42  1  0
 19 43  1  0
M  END
