
     RDKit          2D

 93100  0  0  0  0  0  0  0  0999 V2000
   -5.5704   24.2202    5.5398 C   0  0  0  0  0  0  0  0  0  0  0  0
   -4.8859   25.5525    5.4598 N   0  0  0  0  0  0  0  0  0  0  0  0
   -3.5748   25.6801    4.7425 C   0  0  0  0  0  0  0  0  0  0  0  0
   -3.3799   24.2598    4.3012 C   0  0  0  0  0  0  0  0  0  0  0  0
   -2.8984   22.9614    3.7249 Cl  0  0  0  0  0  0  0  0  0  0  0  0
   -2.3540   25.2991    3.9586 C   0  0  0  0  0  0  0  0  0  0  0  0
   -1.6695   26.6315    3.8785 C   0  0  0  0  0  0  0  0  0  0  0  0
   -2.2962   27.8361    4.5157 C   0  0  0  0  0  0  0  0  0  0  0  0
   -3.6074   27.7085    5.2329 C   0  0  0  0  0  0  0  0  0  0  0  0
   -4.9186   27.5809    5.9502 C   0  0  0  0  0  0  0  0  0  0  0  0
   -5.1792   26.1162    5.7579 C   0  0  0  0  0  0  0  0  0  0  0  0
   -5.4398   24.6516    5.5657 N   0  0  0  0  0  0  0  0  0  0  0  0
   -6.1393   27.9619    6.7341 N   0  0  0  0  0  0  0  0  0  0  0  0
   -5.1134   29.0012    6.3915 C   0  0  0  0  0  0  0  0  0  0  0  0
   -5.7401   30.2059    7.0286 C   0  0  0  0  0  0  0  0  0  0  0  0
   -0.3583   26.7590    3.1613 C   0  0  0  0  0  0  0  0  0  0  0  0
    0.9529   26.8866    2.4441 C   0  0  0  0  0  0  0  0  0  0  0  0
    1.2135   28.3512    2.6362 C   0  0  0  0  0  0  0  0  0  0  0  0
    1.4741   29.8159    2.8285 C   0  0  0  0  0  0  0  0  0  0  0  0
    1.7347   31.2806    3.0207 C   0  0  0  0  0  0  0  0  0  0  0  0
    2.9513   29.5568    2.8000 C   0  0  0  0  0  0  0  0  0  0  0  0
    4.4284   29.2977    2.7716 N   0  0  0  0  0  2  0  0  0  0  0  0
    3.3900   30.9793    2.9845 O   0  0  0  0  0  1  0  0  0  0  0  0
    2.1736   26.5056    1.6600 C   0  0  0  0  0  0  0  0  0  0  0  0
    3.1085   27.6478    1.3932 Br  0  0  0  0  0  0  0  0  0  0  0  0
    1.1478   25.4663    2.0027 C   0  0  0  0  0  0  0  0  0  0  0  0
    1.7744   24.2616    1.3655 C   0  0  0  0  0  0  0  0  0  0  0  0
    1.1173   23.3801    2.3859 C   0  0  0  0  0  0  0  0  0  0  0  0
    1.7440   22.1754    1.7487 C   0  0  0  0  0  0  0  0  0  0  0  0
    1.2714   21.0121    2.5694 N   0  0  0  0  0  0  0  0  0  0  0  0
    2.6153   21.5729    0.6867 C   0  0  0  0  0  0  0  0  0  0  0  0
    2.4011   23.0569    0.7284 C   0  0  0  0  0  0  0  0  0  0  0  0
   -0.0958   24.8454    2.5667 C   0  0  0  0  0  0  0  0  0  0  0  0
   -1.3394   24.2246    3.1307 C   0  0  0  0  0  0  0  0  0  0  0  0
   -2.5026   24.2750    4.0763 C   0  0  0  0  0  0  0  0  0  0  0  0
   -1.5120   25.4009    4.0452 C   0  0  0  0  0  0  0  0  0  0  0  0
   -0.2684   26.0218    3.4812 C   0  0  0  0  0  0  0  0  0  0  0  0
   -0.4410   27.1981    4.3958 C   0  0  0  0  0  0  0  0  0  0  0  0
    0.8025   27.8190    3.8318 O   0  0  0  0  0  0  0  0  0  0  0  0
    0.6300   28.9954    4.7463 O   0  0  0  0  0  0  0  0  0  0  0  0
   -0.6136   28.3745    5.3103 S   0  0  0  0  0  4  0  0  0  0  0  0
   -1.8571   27.7536    5.8743 C   0  0  0  0  0  0  0  0  0  0  0  0
   -3.1006   27.1328    6.4383 O   0  0  0  0  0  0  0  0  0  0  0  0
   -3.9514   27.9025    7.4045 O   0  0  0  0  0  0  0  0  0  0  0  0
   -6.2550   22.8879    5.6199 H   0  0  0  0  0  0  0  0  0  0  0  0
   -6.7656   24.6755    6.3236 H   0  0  0  0  0  0  0  0  0  0  0  0
   -4.6494   23.2940    4.8026 H   0  0  0  0  0  0  0  0  0  0  0  0
   -5.5126   26.7572    6.0969 H   0  0  0  0  0  0  0  0  0  0  0  0
   -3.9483   27.0337    5.2702 H   0  0  0  0  0  0  0  0  0  0  0  0
   -4.4856   23.3350    4.7160 H   0  0  0  0  0  0  0  0  0  0  0  0
   -1.6104   24.1891    3.2768 H   0  0  0  0  0  0  0  0  0  0  0  0
   -1.9027   29.2792    4.6272 H   0  0  0  0  0  0  0  0  0  0  0  0
   -3.5733   29.1729    5.5558 H   0  0  0  0  0  0  0  0  0  0  0  0
   -3.8010   26.2394    4.9999 H   0  0  0  0  0  0  0  0  0  0  0  0
   -6.5141   26.2661    6.4255 H   0  0  0  0  0  0  0  0  0  0  0  0
   -3.8225   26.1460    5.1188 H   0  0  0  0  0  0  0  0  0  0  0  0
   -6.7249   24.1978    6.1922 H   0  0  0  0  0  0  0  0  0  0  0  0
   -4.4568   23.8078    4.8095 H   0  0  0  0  0  0  0  0  0  0  0  0
   -7.4364   27.5819    7.3846 H   0  0  0  0  0  0  0  0  0  0  0  0
   -3.9299   29.7799    5.8984 H   0  0  0  0  0  0  0  0  0  0  0  0
   -6.3668   31.4105    7.6658 H   0  0  0  0  0  0  0  0  0  0  0  0
   -4.8530   31.0988    6.2128 H   0  0  0  0  0  0  0  0  0  0  0  0
   -6.6272   29.3129    7.8445 H   0  0  0  0  0  0  0  0  0  0  0  0
   -0.5450   25.3706    3.6974 H   0  0  0  0  0  0  0  0  0  0  0  0
   -0.3354   28.1854    2.6978 H   0  0  0  0  0  0  0  0  0  0  0  0
    2.4984   28.2228    1.8730 H   0  0  0  0  0  0  0  0  0  0  0  0
    0.0299   28.8303    3.4233 H   0  0  0  0  0  0  0  0  0  0  0  0
    0.1039   30.4217    2.9026 H   0  0  0  0  0  0  0  0  0  0  0  0
    1.9953   32.7452    3.2129 H   0  0  0  0  0  0  0  0  0  0  0  0
    0.4508   31.4085    3.7857 H   0  0  0  0  0  0  0  0  0  0  0  0
    3.0407   31.3320    2.2848 H   0  0  0  0  0  0  0  0  0  0  0  0
    3.0559   28.0727    2.6094 H   0  0  0  0  0  0  0  0  0  0  0  0
    5.3927   30.4367    2.9238 H   0  0  0  0  0  0  0  0  0  0  0  0
    3.2551   25.8149    0.8833 H   0  0  0  0  0  0  0  0  0  0  0  0
    2.5031   24.9897    0.2752 H   0  0  0  0  0  0  0  0  0  0  0  0
    0.5414   22.3583    3.3209 H   0  0  0  0  0  0  0  0  0  0  0  0
    0.2967   24.1887    3.3465 H   0  0  0  0  0  0  0  0  0  0  0  0
    1.7067   19.6203    2.2180 H   0  0  0  0  0  0  0  0  0  0  0  0
    0.3637   21.2406    3.7413 H   0  0  0  0  0  0  0  0  0  0  0  0
    2.5147   20.1232    1.0588 H   0  0  0  0  0  0  0  0  0  0  0  0
    3.5215   21.4738   -0.5045 H   0  0  0  0  0  0  0  0  0  0  0  0
    3.1981   23.5966   -0.4221 H   0  0  0  0  0  0  0  0  0  0  0  0
   -0.2684   26.0218    3.4812 H   0  0  0  0  0  0  0  0  0  0  0  0
   -1.6452   22.9013    2.4940 H   0  0  0  0  0  0  0  0  0  0  0  0
   -3.0352   22.9503    3.6165 H   0  0  0  0  0  0  0  0  0  0  0  0
   -3.6101   24.4641    5.0701 H   0  0  0  0  0  0  0  0  0  0  0  0
   -2.1379   26.2590    5.1044 H   0  0  0  0  0  0  0  0  0  0  0  0
    0.8965   26.9089    3.1553 H   0  0  0  0  0  0  0  0  0  0  0  0
    0.8074   27.5159    3.6272 H   0  0  0  0  0  0  0  0  0  0  0  0
   -0.7861   29.5509    6.2248 H   0  0  0  0  0  0  0  0  0  0  0  0
   -1.7175   26.2633    5.9714 H   0  0  0  0  0  0  0  0  0  0  0  0
   -2.3278   29.1772    5.9172 H   0  0  0  0  0  0  0  0  0  0  0  0
   -5.2220   27.6019    8.1429 H   0  0  0  0  0  0  0  0  0  0  0  0
  1  2  1  0
  2  3  1  0
  3  4  1  0
  4  5  1  0
  4  6  1  0
  6  7  1  0
  7  8  2  3
  8  9  1  0
 10  9  1  6
 10 11  1  0
 11 12  1  0
 10 13  1  0
 13 14  1  0
 14 15  1  0
  7 16  1  0
 17 16  1  6
 17 18  1  0
 18 19  1  0
 19 20  1  0
 19 21  1  0
 21 22  1  0
 21 23  1  0
 17 24  1  0
 24 25  1  0
 24 26  1  0
 26 27  1  6
 27 28  1  0
 28 29  1  0
 29 30  1  1
 29 31  1  0
 31 32  1  0
 26 33  1  0
 33 34  1  0
 34 35  1  0
 35 36  1  0
 36 37  1  0
 37 38  1  0
 38 39  1  0
 39 40  1  0
 40 41  1  0
 41 42  1  0
 42 43  1  0
 43 44  1  0
  6  3  1  0
 14 10  1  0
 26 17  1  0
 32 27  1  0
 37 33  1  0
 41 38  1  0
 32 29  1  0
 36 34  1  0
  1 45  1  0
  1 46  1  0
  1 47  1  0
  2 48  1  0
  3 49  1  1
  4 50  1  6
  6 51  1  6
  8 52  1  0
  9 53  1  0
  9 54  1  0
 11 55  1  0
 11 56  1  0
 12 57  1  0
 12 58  1  0
 13 59  1  0
 14 60  1  6
 15 61  1  0
 15 62  1  0
 15 63  1  0
 16 64  1  0
 16 65  1  0
 18 66  1  0
 18 67  1  0
 19 68  1  1
 20 69  1  0
 20 70  1  0
 20 71  1  0
 21 72  1  6
 22 73  1  0
 24 74  1  1
 27 75  1  0
 28 76  1  0
 28 77  1  0
 30 78  1  0
 30 79  1  0
 31 80  1  0
 31 81  1  0
 32 82  1  6
 33 83  1  1
 34 84  1  1
 35 85  1  0
 35 86  1  0
 36 87  1  1
 37 88  1  6
 38 89  1  6
 41 90  1  6
 42 91  1  0
 42 92  1  0
 44 93  1  0
M  RAD  2  22   2  23   2
M  END
