
     RDKit          2D

 66 75  0  0  0  0  0  0  0  0999 V2000
   16.3692  -27.9937   -8.9984 C   0  0  0  0  0  0  0  0  0  0  0  0
   17.6733  -27.6231   -9.6404 C   0  0  0  0  0  0  0  0  0  0  0  0
   18.9773  -27.2523  -10.2823 C   0  0  0  0  0  0  0  0  0  0  0  0
   18.4049  -25.9235  -10.6779 C   0  0  0  0  0  0  0  0  0  0  0  0
   19.1924  -24.8932  -11.4318 C   0  0  0  0  0  0  0  0  0  0  0  0
   19.2133  -23.5305  -12.0583 N   0  0  0  0  0  0  0  0  0  0  0  0
   18.4612  -22.2680  -12.3585 C   0  0  0  0  0  0  0  0  0  0  0  0
   17.1745  -21.5065  -12.2371 N   0  0  0  0  0  0  0  0  0  0  0  0
   15.6148  -21.6804  -11.5918 C   0  0  0  0  0  0  0  0  0  0  0  0
   16.1469  -21.1828  -12.0110 C   0  0  0  0  0  0  0  0  0  0  0  0
   17.0459  -20.2644  -12.7545 C   0  0  0  0  0  0  0  0  0  0  0  0
   17.6971  -19.1547  -13.4950 N   0  0  0  0  0  0  0  0  0  0  0  0
   18.0385  -18.5096  -13.9120 C   0  0  0  0  0  0  0  0  0  0  0  0
   16.8519  -17.5921  -13.8978 C   0  0  0  0  0  0  0  0  0  0  0  0
   18.1272  -17.1586  -14.5578 C   0  0  0  0  0  0  0  0  0  0  0  0
   14.1046  -16.7722  -13.2725 C   0  0  0  0  0  0  0  0  0  0  0  0
   14.3133  -18.1517  -12.7217 C   0  0  0  0  0  0  0  0  0  0  0  0
   13.9311  -19.4151  -12.0091 C   0  0  0  0  0  0  0  0  0  0  0  0
   12.5114  -19.1121  -11.6312 Se  0  0  0  0  0  2  0  0  0  0  0  0
   14.4281  -20.7629  -11.5775 C   0  0  0  0  0  0  0  0  0  0  0  0
   13.1528  -21.1964  -10.9175 C   0  0  0  0  0  0  0  0  0  0  0  0
   13.0641  -22.5474  -10.2717 C   0  0  0  0  0  0  0  0  0  0  0  0
   12.9754  -23.8984   -9.6260 N   0  0  0  0  0  0  0  0  0  0  0  0
   14.2507  -23.4649  -10.2860 C   0  0  0  0  0  0  0  0  0  0  0  0
   15.5261  -23.0313  -10.9460 C   0  0  0  0  0  0  0  0  0  0  0  0
   14.6318  -24.8329   -9.8030 N   0  0  0  0  0  0  0  0  0  0  0  0
   15.6943  -25.8877   -9.7098 C   0  0  0  0  0  0  0  0  0  0  0  0
   14.5221  -26.5032   -9.0047 C   0  0  0  0  0  0  0  0  0  0  0  0
   16.2040  -27.2326   -9.2842 C   0  0  0  0  0  0  0  0  0  0  0  0
   17.1008  -26.2942  -10.0360 C   0  0  0  0  0  0  0  0  0  0  0  0
   15.4290  -17.4555  -13.4431 C   0  0  0  0  0  0  0  0  0  0  0  0
   15.2423  -28.6752   -8.2803 H   0  0  0  0  0  0  0  0  0  0  0  0
   16.9411  -29.3233   -8.6047 H   0  0  0  0  0  0  0  0  0  0  0  0
   15.4988  -26.7934   -9.2252 H   0  0  0  0  0  0  0  0  0  0  0  0
   18.2458  -28.9519   -9.2447 H   0  0  0  0  0  0  0  0  0  0  0  0
   20.3042  -27.9299  -10.4564 H   0  0  0  0  0  0  0  0  0  0  0  0
   19.3190  -26.2338  -10.8689 H   0  0  0  0  0  0  0  0  0  0  0  0
   19.8454  -25.6234  -11.3373 H   0  0  0  0  0  0  0  0  0  0  0  0
   20.5449  -24.6506  -12.0332 H   0  0  0  0  0  0  0  0  0  0  0  0
   19.8500  -22.1554  -12.9140 H   0  0  0  0  0  0  0  0  0  0  0  0
   18.9553  -21.0547  -13.0890 H   0  0  0  0  0  0  0  0  0  0  0  0
   17.2932  -20.8059  -12.5984 H   0  0  0  0  0  0  0  0  0  0  0  0
   17.8632  -23.0429  -11.7895 H   0  0  0  0  0  0  0  0  0  0  0  0
   16.8254  -23.1386  -11.3692 H   0  0  0  0  0  0  0  0  0  0  0  0
   19.5762  -21.2574  -13.2224 H   0  0  0  0  0  0  0  0  0  0  0  0
   19.0958  -22.2736  -12.5865 H   0  0  0  0  0  0  0  0  0  0  0  0
   19.9585  -19.9941  -13.9350 H   0  0  0  0  0  0  0  0  0  0  0  0
   19.4473  -18.5020  -14.4270 H   0  0  0  0  0  0  0  0  0  0  0  0
   16.6677  -16.2126  -14.4574 H   0  0  0  0  0  0  0  0  0  0  0  0
   18.9148  -16.1283  -15.3117 H   0  0  0  0  0  0  0  0  0  0  0  0
   13.2194  -15.5813  -13.4919 H   0  0  0  0  0  0  0  0  0  0  0  0
   12.8919  -17.8723  -12.3325 H   0  0  0  0  0  0  0  0  0  0  0  0
   13.1774  -19.9387  -11.4977 H   0  0  0  0  0  0  0  0  0  0  0  0
   11.7376  -21.1558  -10.4220 H   0  0  0  0  0  0  0  0  0  0  0  0
   12.4314  -19.9203  -11.2351 H   0  0  0  0  0  0  0  0  0  0  0  0
   11.6427  -22.2680   -9.8825 H   0  0  0  0  0  0  0  0  0  0  0  0
   12.1879  -24.9286   -8.8721 H   0  0  0  0  0  0  0  0  0  0  0  0
   16.9501  -23.2397  -11.3685 H   0  0  0  0  0  0  0  0  0  0  0  0
   15.9289  -24.3964  -10.4723 H   0  0  0  0  0  0  0  0  0  0  0  0
   13.3398  -25.2309   -9.1531 H   0  0  0  0  0  0  0  0  0  0  0  0
   13.3500  -27.1187   -8.2995 H   0  0  0  0  0  0  0  0  0  0  0  0
   15.0228  -27.8507   -8.5764 H   0  0  0  0  0  0  0  0  0  0  0  0
   13.5769  -25.3520   -9.1822 H   0  0  0  0  0  0  0  0  0  0  0  0
   14.9829  -27.7685   -8.5973 H   0  0  0  0  0  0  0  0  0  0  0  0
   17.1379  -28.3914   -9.0970 H   0  0  0  0  0  0  0  0  0  0  0  0
   15.4929  -16.0998  -14.0820 H   0  0  0  0  0  0  0  0  0  0  0  0
  1  2  1  0
  2  3  1  0
  3  4  1  0
  4  5  1  0
  5  6  1  0
  6  7  1  0
  7  8  1  0
  8  9  1  0
  9 10  1  0
 10 11  1  0
 11 12  1  0
 12 13  1  0
 13 14  1  0
 14 15  1  0
 15 16  1  0
 16 17  1  0
 17 18  1  0
 18 19  2  0
 18 20  1  0
 20 21  1  0
 21 22  1  0
 22 23  1  0
 23 24  1  0
 24 25  1  0
 24 26  1  0
 26 27  1  0
 27 28  1  0
 27 29  1  0
 29 30  1  0
 17 31  1  0
 30  2  1  0
  6  3  1  0
 20  9  1  0
 24 22  1  0
 30 27  1  0
 30  4  1  0
 25  9  1  0
 15 13  1  0
 31 16  1  0
 31 14  1  0
  1 32  1  0
  1 33  1  0
  1 34  1  0
  2 35  1  0
  3 36  1  0
  4 37  1  0
  5 38  1  0
  5 39  1  0
  7 40  1  0
  7 41  1  0
  8 42  1  0
 10 43  1  0
 10 44  1  0
 11 45  1  0
 11 46  1  0
 12 47  1  0
 13 48  1  0
 14 49  1  0
 15 50  1  0
 16 51  1  0
 17 52  1  0
 20 53  1  0
 21 54  1  0
 21 55  1  0
 22 56  1  0
 23 57  1  0
 25 58  1  0
 25 59  1  0
 26 60  1  0
 28 61  1  0
 28 62  1  0
 28 63  1  0
 29 64  1  0
 29 65  1  0
 31 66  1  0
M  END
