
     RDKit          2D

 45 47  0  0  0  0  0  0  0  0999 V2000
    8.1757   24.0652   10.0193 C   0  0  0  0  0  0  0  0  0  0  0  0
    6.8799   24.0072    9.2659 C   0  0  0  0  0  0  0  0  0  0  0  0
    5.5842   23.9493    8.5125 C   0  0  0  0  0  0  0  0  0  0  0  0
    5.8910   24.5777    8.1300 Cl  0  0  0  0  0  0  0  0  0  0  0  0
    4.2884   23.8914    7.7592 C   0  0  0  0  0  0  0  0  0  0  0  0
    4.7162   25.2291    7.2325 C   0  0  0  0  0  0  0  0  0  0  0  0
    3.6521   25.7209    6.2967 C   0  0  0  0  0  0  0  0  0  0  0  0
    2.5665   24.6870    6.2450 C   0  0  0  0  0  0  0  0  0  0  0  0
    1.3454   23.8531    5.9932 C   0  0  0  0  0  0  0  0  0  0  0  0
    0.1243   23.0191    5.7416 C   0  0  0  0  0  0  0  0  0  0  0  0
   -0.6036   23.9076    4.7768 C   0  0  0  0  0  0  0  0  0  0  0  0
   -1.7898   24.1753    3.8985 C   0  0  0  0  0  0  0  0  0  0  0  0
   -2.3886   22.8621    4.3069 C   0  0  0  0  0  0  0  0  0  0  0  0
   -2.9873   21.5488    4.7152 C   0  0  0  0  0  0  0  0  0  0  0  0
   -1.2024   22.5944    5.1851 C   0  0  0  0  0  0  0  0  0  0  0  0
    2.9598   23.5563    7.1488 C   0  0  0  0  0  0  0  0  0  0  0  0
    3.0805   22.3007    7.9605 C   0  0  0  0  0  0  0  0  0  0  0  0
    1.6564   22.9588    6.7081 O   0  0  0  0  0  0  0  0  0  0  0  0
    9.4715   24.1231   10.7726 H   0  0  0  0  0  0  0  0  0  0  0  0
    7.4273   24.3695   11.2831 H   0  0  0  0  0  0  0  0  0  0  0  0
    8.9241   23.7609    8.7554 H   0  0  0  0  0  0  0  0  0  0  0  0
    7.1775   25.3428    8.6514 H   0  0  0  0  0  0  0  0  0  0  0  0
    6.5824   22.6717    9.8804 H   0  0  0  0  0  0  0  0  0  0  0  0
    5.1616   22.7650    9.3304 H   0  0  0  0  0  0  0  0  0  0  0  0
    4.2934   22.5997    8.5217 H   0  0  0  0  0  0  0  0  0  0  0  0
    5.3963   26.5205    6.8864 H   0  0  0  0  0  0  0  0  0  0  0  0
    5.3886   25.1978    7.6596 H   0  0  0  0  0  0  0  0  0  0  0  0
    2.7766   26.4611    5.3294 H   0  0  0  0  0  0  0  0  0  0  0  0
    4.5546   26.9095    6.1462 H   0  0  0  0  0  0  0  0  0  0  0  0
    1.9180   25.6433    5.2885 H   0  0  0  0  0  0  0  0  0  0  0  0
    0.9737   24.9968    5.0968 H   0  0  0  0  0  0  0  0  0  0  0  0
    1.5587   22.6325    6.8387 H   0  0  0  0  0  0  0  0  0  0  0  0
    0.4280   21.8409    6.6189 H   0  0  0  0  0  0  0  0  0  0  0  0
    0.1543   25.1709    4.4946 H   0  0  0  0  0  0  0  0  0  0  0  0
   -2.9760   24.4431    3.0202 H   0  0  0  0  0  0  0  0  0  0  0  0
   -1.1910   25.4886    3.4902 H   0  0  0  0  0  0  0  0  0  0  0  0
   -3.5747   23.1298    3.4286 H   0  0  0  0  0  0  0  0  0  0  0  0
   -3.5862   20.2355    5.1236 H   0  0  0  0  0  0  0  0  0  0  0  0
   -3.8875   21.5862    3.5159 H   0  0  0  0  0  0  0  0  0  0  0  0
   -2.1669   21.3515    5.9554 H   0  0  0  0  0  0  0  0  0  0  0  0
   -1.3132   21.2764    5.8928 H   0  0  0  0  0  0  0  0  0  0  0  0
    3.2013   21.0451    8.7722 H   0  0  0  0  0  0  0  0  0  0  0  0
    1.7796   21.6845    7.5387 H   0  0  0  0  0  0  0  0  0  0  0  0
    4.4109   22.6108    8.5802 H   0  0  0  0  0  0  0  0  0  0  0  0
    0.6656   23.5573    5.7541 H   0  0  0  0  0  0  0  0  0  0  0  0
  1  2  1  0
  2  3  1  0
  3  4  1  0
  3  5  1  0
  5  6  1  0
  6  7  1  0
  7  8  1  0
  8  9  1  0
  9 10  1  0
 10 11  1  0
 11 12  1  0
 12 13  1  0
 13 14  1  0
 13 15  1  0
  8 16  1  0
 16 17  1  0
 16 18  1  0
 16  5  1  0
 15 10  1  0
 15 11  1  0
  1 19  1  0
  1 20  1  0
  1 21  1  0
  2 22  1  0
  2 23  1  0
  3 24  1  0
  5 25  1  0
  6 26  1  0
  6 27  1  0
  7 28  1  0
  7 29  1  0
  8 30  1  0
  9 31  1  0
  9 32  1  0
 10 33  1  0
 11 34  1  0
 12 35  1  0
 12 36  1  0
 13 37  1  0
 14 38  1  0
 14 39  1  0
 14 40  1  0
 15 41  1  0
 17 42  1  0
 17 43  1  0
 17 44  1  0
 18 45  1  0
M  END
