
     RDKit          2D

 49 53  0  0  0  0  0  0  0  0999 V2000
  -12.0413   34.1848   14.1594 C   0  0  0  0  0  0  0  0  0  0  0  0
  -12.1139   33.0254   15.1084 C   0  0  0  0  0  0  0  0  0  0  0  0
  -12.9463   33.1253   16.3523 C   0  0  0  0  0  0  0  0  0  0  0  0
  -11.3539   31.7662   14.8135 C   0  0  0  0  0  0  0  0  0  0  0  0
  -10.5940   30.5070   14.5188 C   0  0  0  0  0  0  0  0  0  0  0  0
  -10.9021   29.5902   15.6654 C   0  0  0  0  0  0  0  0  0  0  0  0
   -9.9952   29.1324   14.5617 C   0  0  0  0  0  0  0  0  0  0  0  0
   -9.2939   29.3974   13.2625 N   0  0  0  0  0  0  0  0  0  0  0  0
   -8.3746   28.6127   12.3742 C   0  0  0  0  0  0  0  0  0  0  0  0
   -8.2995   29.7732   11.4268 N   0  0  0  0  0  2  0  0  0  0  0  0
   -7.3801   28.9885   10.5384 C   0  0  0  0  0  0  0  0  0  0  0  0
   -6.4839   28.0320    9.8093 C   0  0  0  0  0  0  0  0  0  0  0  0
   -5.9996   28.7098    8.5618 C   0  0  0  0  0  0  0  0  0  0  0  0
   -6.5966   30.0852    8.5201 C   0  0  0  0  0  0  0  0  0  0  0  0
   -5.8349   30.2058    7.2335 C   0  0  0  0  0  0  0  0  0  0  0  0
   -5.7593   31.6926    7.4175 C   0  0  0  0  0  0  0  0  0  0  0  0
   -4.9976   31.8131    6.1309 C   0  0  0  0  0  0  0  0  0  0  0  0
   -4.2359   31.9337    4.8443 O   0  0  0  0  0  0  0  0  0  0  0  0
   -5.0731   30.3263    5.9469 C   0  0  0  0  0  0  0  0  0  0  0  0
   -5.1487   28.8396    5.7629 O   0  0  0  0  0  0  0  0  0  0  0  0
   -7.4498   30.2575    9.7417 N   0  0  0  0  0  0  0  0  0  0  0  0
   -7.4552   27.8280   11.4858 N   0  0  0  0  0  2  0  0  0  0  0  0
   -9.8927   30.7720   13.2196 C   0  0  0  0  0  0  0  0  0  0  0  0
  -12.8012   35.4440   14.4542 H   0  0  0  0  0  0  0  0  0  0  0  0
  -11.2089   34.0850   12.9155 H   0  0  0  0  0  0  0  0  0  0  0  0
  -13.7787   33.2251   17.5961 H   0  0  0  0  0  0  0  0  0  0  0  0
  -13.3423   34.5221   15.9750 H   0  0  0  0  0  0  0  0  0  0  0  0
  -12.5503   31.7286   16.7294 H   0  0  0  0  0  0  0  0  0  0  0  0
  -10.9304   32.5257   13.5914 H   0  0  0  0  0  0  0  0  0  0  0  0
  -11.9627   31.3136   16.1077 H   0  0  0  0  0  0  0  0  0  0  0  0
  -11.8233   30.3339   16.5863 H   0  0  0  0  0  0  0  0  0  0  0  0
  -10.8941   28.3669   16.5333 H   0  0  0  0  0  0  0  0  0  0  0  0
   -9.5984   27.7360   14.9393 H   0  0  0  0  0  0  0  0  0  0  0  0
   -8.4496   27.4521   13.3215 H   0  0  0  0  0  0  0  0  0  0  0  0
   -6.7943   27.1141   10.9543 H   0  0  0  0  0  0  0  0  0  0  0  0
   -5.6525   26.8836    9.3195 H   0  0  0  0  0  0  0  0  0  0  0  0
   -5.2695   27.4197    8.3328 H   0  0  0  0  0  0  0  0  0  0  0  0
   -5.6204   28.8383    7.8725 H   0  0  0  0  0  0  0  0  0  0  0  0
   -7.1300   31.4786    8.3654 H   0  0  0  0  0  0  0  0  0  0  0  0
   -5.8254   29.4294    7.0531 H   0  0  0  0  0  0  0  0  0  0  0  0
   -5.6838   33.1793    7.6015 H   0  0  0  0  0  0  0  0  0  0  0  0
   -6.5062   31.7542    8.7169 H   0  0  0  0  0  0  0  0  0  0  0  0
   -4.9221   33.2999    6.3149 H   0  0  0  0  0  0  0  0  0  0  0  0
   -3.4653   33.1848    4.5435 H   0  0  0  0  0  0  0  0  0  0  0  0
   -4.3114   30.4469    4.6603 H   0  0  0  0  0  0  0  0  0  0  0  0
   -4.1565   28.1418    4.8806 H   0  0  0  0  0  0  0  0  0  0  0  0
   -8.2348   31.4835   10.1031 H   0  0  0  0  0  0  0  0  0  0  0  0
  -10.4015   32.1686   13.0186 H   0  0  0  0  0  0  0  0  0  0  0  0
   -9.1913   31.0369   11.9204 H   0  0  0  0  0  0  0  0  0  0  0  0
  1  2  2  3
  2  3  1  0
  2  4  1  0
  4  5  1  0
  5  6  1  0
  6  7  1  0
  7  8  1  0
  8  9  1  0
  9 10  1  0
 10 11  1  0
 11 12  1  0
 12 13  1  0
 13 14  1  0
 14 15  1  0
 15 16  1  0
 16 17  1  0
 17 18  1  0
 17 19  1  0
 19 20  1  0
 14 21  1  0
 11 22  1  0
  8 23  1  0
  7  5  1  0
 22  9  1  0
 23  5  1  0
 21 11  1  0
 19 15  1  0
  1 24  1  0
  1 25  1  0
  3 26  1  0
  3 27  1  0
  3 28  1  0
  4 29  1  0
  4 30  1  0
  6 31  1  0
  6 32  1  0
  7 33  1  0
  9 34  1  0
 12 35  1  0
 12 36  1  0
 13 37  1  0
 13 38  1  0
 14 39  1  0
 15 40  1  0
 16 41  1  0
 16 42  1  0
 17 43  1  0
 18 44  1  0
 19 45  1  0
 20 46  1  0
 21 47  1  0
 23 48  1  0
 23 49  1  0
M  RAD  2  10   2  22   2
M  END
