
     RDKit          2D

105108  0  0  0  0  0  0  0  0999 V2000
   20.7272  -19.5816  -10.9174 C   0  0  0  0  0  0  0  0  0  0  0  0
   21.4356  -20.6339  -10.1170 C   0  0  0  0  0  0  0  0  0  0  0  0
   21.2577  -20.6906   -8.6286 C   0  0  0  0  0  0  0  0  0  0  0  0
   20.3714  -19.6949   -7.9407 C   0  0  0  0  0  0  0  0  0  0  0  0
   19.6630  -18.6425   -8.7412 C   0  0  0  0  0  0  0  0  0  0  0  0
   18.9546  -17.5902   -9.5416 C   0  0  0  0  0  0  0  0  0  0  0  0
   19.0731  -18.0814   -7.4813 C   0  0  0  0  0  0  0  0  0  0  0  0
   18.4833  -17.5203   -6.2214 C   0  0  0  0  0  0  0  0  0  0  0  0
   17.8935  -16.9593   -4.9615 C   0  0  0  0  0  0  0  0  0  0  0  0
   17.3038  -16.3983   -3.7015 C   0  0  0  0  0  0  0  0  0  0  0  0
   16.7140  -15.8372   -2.4416 O   0  0  0  0  0  0  0  0  0  0  0  0
   15.8041  -14.6464   -2.5050 C   0  0  0  0  0  0  0  0  0  0  0  0
   15.9586  -14.6077   -3.9964 C   0  0  0  0  0  0  0  0  0  0  0  0
   15.6497  -14.6851   -1.0134 C   0  0  0  0  0  0  0  0  0  0  0  0
   15.4953  -14.7238    0.4781 O   0  0  0  0  0  0  0  0  0  0  0  0
   18.9545  -18.7262   -5.4639 C   0  0  0  0  0  0  0  0  0  0  0  0
   19.4257  -19.9321   -4.7064 As  0  0  0  0  0  3  0  0  0  0  0  0
   20.2252  -20.9915   -5.4051 N   0  0  0  0  0  0  0  0  0  0  0  0
   19.0974  -20.0784   -3.2501 C   0  0  0  0  0  0  0  0  0  0  0  0
   18.7691  -20.2248   -1.7937 C   0  0  0  0  0  0  0  0  0  0  0  0
   17.9974  -19.3162   -0.8832 C   0  0  0  0  0  0  0  0  0  0  0  0
   17.5470  -19.2331    0.5451 O   0  0  0  0  0  0  0  0  0  0  0  0
   17.6286  -20.0143    1.8229 C   0  0  0  0  0  0  0  0  0  0  0  0
   16.8408  -18.7745    2.1263 C   0  0  0  0  0  0  0  0  0  0  0  0
   16.0529  -17.5346    2.4298 C   0  0  0  0  0  0  0  0  0  0  0  0
   15.2651  -16.2948    2.7333 C   0  0  0  0  0  0  0  0  0  0  0  0
   18.2040  -21.2944    2.3525 C   0  0  0  0  0  0  0  0  0  0  0  0
   17.8757  -21.4408    3.8087 O   0  0  0  0  0  0  0  0  0  0  0  0
   19.0040  -22.4743    1.8858 N   0  0  0  0  0  0  0  0  0  0  0  0
   19.6543  -23.0021    0.6413 C   0  0  0  0  0  0  0  0  0  0  0  0
   19.9176  -24.0067    1.7235 C   0  0  0  0  0  0  0  0  0  0  0  0
   19.8505  -22.6306   -0.7986 C   0  0  0  0  0  0  0  0  0  0  0  0
   20.5393  -23.9477   -0.5964 O   0  0  0  0  0  0  0  0  0  0  0  0
   19.5009  -21.5338   -1.7603 C   0  0  0  0  0  0  0  0  0  0  0  0
   19.8293  -21.3874   -3.2167 C   0  0  0  0  0  0  0  0  0  0  0  0
   20.5611  -22.6964   -3.1832 C   0  0  0  0  0  0  0  0  0  0  0  0
   21.2929  -24.0053   -3.1498 C   0  0  0  0  0  0  0  0  0  0  0  0
   21.7423  -24.0890   -4.5784 C   0  0  0  0  0  0  0  0  0  0  0  0
   22.5420  -25.2691   -5.0452 C   0  0  0  0  0  0  0  0  0  0  0  0
   22.7372  -24.8982   -6.4854 C   0  0  0  0  0  0  0  0  0  0  0  0
   22.9325  -24.5273   -7.9257 C   0  0  0  0  0  0  0  0  0  0  0  0
   23.1277  -24.1564   -9.3660 O   0  0  0  0  0  0  0  0  0  0  0  0
   22.0925  -25.1853   -3.6166 C   0  0  0  0  0  0  0  0  0  0  0  0
   22.4428  -26.2818   -2.6547 C   0  0  0  0  0  0  0  0  0  0  0  0
   20.9050  -19.5248  -12.4057 H   0  0  0  0  0  0  0  0  0  0  0  0
   19.8409  -18.5859  -10.2295 H   0  0  0  0  0  0  0  0  0  0  0  0
   22.3219  -21.6296  -10.8048 H   0  0  0  0  0  0  0  0  0  0  0  0
   21.9661  -21.7429   -7.8281 H   0  0  0  0  0  0  0  0  0  0  0  0
   20.4216  -20.0360   -6.4809 H   0  0  0  0  0  0  0  0  0  0  0  0
   20.2529  -19.2037  -10.0010 H   0  0  0  0  0  0  0  0  0  0  0  0
   18.2462  -16.5378  -10.3420 H   0  0  0  0  0  0  0  0  0  0  0  0
   19.5659  -18.1347  -10.7985 H   0  0  0  0  0  0  0  0  0  0  0  0
   18.5453  -17.1953   -8.8625 H   0  0  0  0  0  0  0  0  0  0  0  0
   18.3659  -17.0280   -8.2815 H   0  0  0  0  0  0  0  0  0  0  0  0
   19.4452  -18.6584   -6.9217 H   0  0  0  0  0  0  0  0  0  0  0  0
   18.0122  -16.3145   -6.9790 H   0  0  0  0  0  0  0  0  0  0  0  0
   17.1842  -15.9075   -5.7619 H   0  0  0  0  0  0  0  0  0  0  0  0
   18.5257  -17.9348   -4.0135 H   0  0  0  0  0  0  0  0  0  0  0  0
   16.9672  -15.8804   -4.2054 H   0  0  0  0  0  0  0  0  0  0  0  0
   18.0143  -17.4491   -2.9011 H   0  0  0  0  0  0  0  0  0  0  0  0
   14.8943  -13.4555   -2.5682 H   0  0  0  0  0  0  0  0  0  0  0  0
   16.1130  -14.5689   -5.4880 H   0  0  0  0  0  0  0  0  0  0  0  0
   14.5232  -14.1946   -4.1344 H   0  0  0  0  0  0  0  0  0  0  0  0
   16.7001  -14.8052   -4.2122 H   0  0  0  0  0  0  0  0  0  0  0  0
   15.5819  -13.1870   -0.9816 H   0  0  0  0  0  0  0  0  0  0  0  0
   15.7175  -16.1832   -1.0453 H   0  0  0  0  0  0  0  0  0  0  0  0
   15.2145  -13.4603    1.2361 H   0  0  0  0  0  0  0  0  0  0  0  0
   18.3671  -18.3491   -4.1363 H   0  0  0  0  0  0  0  0  0  0  0  0
   19.6990  -19.5303   -6.4882 H   0  0  0  0  0  0  0  0  0  0  0  0
   20.5535  -20.8452   -6.8614 H   0  0  0  0  0  0  0  0  0  0  0  0
   20.7723  -22.2527   -4.8049 H   0  0  0  0  0  0  0  0  0  0  0  0
   18.4110  -18.7614   -3.4607 H   0  0  0  0  0  0  0  0  0  0  0  0
   18.2446  -18.9767   -2.4395 H   0  0  0  0  0  0  0  0  0  0  0  0
   17.9112  -18.5288   -2.1571 H   0  0  0  0  0  0  0  0  0  0  0  0
   17.2324  -18.0331   -0.7474 H   0  0  0  0  0  0  0  0  0  0  0  0
   17.2583  -20.0844    3.2748 H   0  0  0  0  0  0  0  0  0  0  0  0
   16.9914  -18.3301    0.7017 H   0  0  0  0  0  0  0  0  0  0  0  0
   16.6902  -19.2189    3.5511 H   0  0  0  0  0  0  0  0  0  0  0  0
   16.2039  -17.0900    1.0052 H   0  0  0  0  0  0  0  0  0  0  0  0
   15.9020  -17.9792    3.8545 H   0  0  0  0  0  0  0  0  0  0  0  0
   14.4773  -15.0549    3.0367 H   0  0  0  0  0  0  0  0  0  0  0  0
   15.1151  -16.7388    4.1581 H   0  0  0  0  0  0  0  0  0  0  0  0
   15.4152  -15.8507    1.3084 H   0  0  0  0  0  0  0  0  0  0  0  0
   19.1272  -23.3100    3.1253 H   0  0  0  0  0  0  0  0  0  0  0  0
   20.4403  -24.2470    0.3546 H   0  0  0  0  0  0  0  0  0  0  0  0
   20.1810  -25.0114    2.8057 H   0  0  0  0  0  0  0  0  0  0  0  0
   20.6693  -24.8617    0.7468 H   0  0  0  0  0  0  0  0  0  0  0  0
   19.2036  -23.2806    2.8249 H   0  0  0  0  0  0  0  0  0  0  0  0
   20.5035  -23.1653   -2.0387 H   0  0  0  0  0  0  0  0  0  0  0  0
   21.2821  -24.7456   -1.6268 H   0  0  0  0  0  0  0  0  0  0  0  0
   18.9944  -21.3364   -0.3623 H   0  0  0  0  0  0  0  0  0  0  0  0
   20.3249  -21.5621   -4.6216 H   0  0  0  0  0  0  0  0  0  0  0  0
   20.9726  -22.7126   -4.6256 H   0  0  0  0  0  0  0  0  0  0  0  0
   20.3279  -22.9992   -1.7328 H   0  0  0  0  0  0  0  0  0  0  0  0
   21.1939  -24.5275   -1.7471 H   0  0  0  0  0  0  0  0  0  0  0  0
   21.3921  -22.9926   -5.5403 H   0  0  0  0  0  0  0  0  0  0  0  0
   23.2738  -26.5780   -5.0118 H   0  0  0  0  0  0  0  0  0  0  0  0
   23.5165  -26.1610   -6.7050 H   0  0  0  0  0  0  0  0  0  0  0  0
   21.9579  -23.6355   -6.2659 H   0  0  0  0  0  0  0  0  0  0  0  0
   23.7122  -25.7897   -8.1451 H   0  0  0  0  0  0  0  0  0  0  0  0
   22.1526  -23.2649   -7.7063 H   0  0  0  0  0  0  0  0  0  0  0  0
   22.5519  -22.8765   -9.8956 H   0  0  0  0  0  0  0  0  0  0  0  0
   22.7930  -27.3782   -1.6928 H   0  0  0  0  0  0  0  0  0  0  0  0
   23.1628  -27.0122   -3.7494 H   0  0  0  0  0  0  0  0  0  0  0  0
   21.7228  -25.5515   -1.5601 H   0  0  0  0  0  0  0  0  0  0  0  0
  1  2  2  3
  2  3  1  0
  3  4  2  3
  4  5  1  0
  5  6  1  0
  5  7  1  0
  7  8  1  0
  8  9  1  0
  9 10  1  0
 10 11  1  0
 11 12  1  0
 12 13  1  0
 12 14  1  0
 14 15  1  0
  8 16  1  0
 16 17  1  0
 17 18  1  0
 17 19  1  0
 19 20  1  0
 20 21  1  0
 21 22  1  0
 22 23  1  0
 23 24  1  0
 24 25  1  0
 25 26  1  0
 23 27  1  0
 27 28  2  0
 27 29  1  0
 29 30  1  0
 30 31  1  0
 30 32  1  0
 32 33  1  0
 32 34  1  0
 34 35  1  0
 35 36  1  0
 36 37  1  0
 37 38  1  0
 38 39  1  0
 39 40  1  0
 40 41  1  0
 41 42  1  0
 39 43  1  0
 43 44  1  1
 35 19  1  0
 43 37  1  0
 34 20  1  0
 43 38  1  0
  1 45  1  0
  1 46  1  0
  2 47  1  0
  3 48  1  0
  4 49  1  0
  5 50  1  6
  6 51  1  0
  6 52  1  0
  6 53  1  0
  7 54  1  0
  7 55  1  0
  8 56  1  1
  9 57  1  0
  9 58  1  0
 10 59  1  0
 10 60  1  0
 12 61  1  6
 13 62  1  0
 13 63  1  0
 13 64  1  0
 14 65  1  0
 14 66  1  0
 15 67  1  0
 16 68  1  0
 16 69  1  0
 18 70  1  0
 18 71  1  0
 19 72  1  6
 20 73  1  6
 21 74  1  0
 21 75  1  0
 23 76  1  6
 24 77  1  0
 24 78  1  0
 25 79  1  0
 25 80  1  0
 26 81  1  0
 26 82  1  0
 26 83  1  0
 29 84  1  0
 30 85  1  6
 31 86  1  0
 31 87  1  0
 31 88  1  0
 32 89  1  6
 33 90  1  0
 34 91  1  6
 35 92  1  1
 36 93  1  0
 36 94  1  0
 37 95  1  6
 38 96  1  6
 39 97  1  6
 40 98  1  0
 40 99  1  0
 41100  1  0
 41101  1  0
 42102  1  0
 44103  1  0
 44104  1  0
 44105  1  0
M  END
