
     RDKit          2D

 42 50  0  0  0  0  0  0  0  0999 V2000
   -7.7078   31.6722    7.3418 C   0  0  0  0  0  0  0  0  0  0  0  0
   -7.1448   30.2848    7.4312 C   0  0  0  0  0  0  0  0  0  0  0  0
   -6.5817   28.8973    7.5206 C   0  0  0  0  0  0  0  0  0  0  0  0
   -6.0186   27.5099    7.6100 C   0  0  0  0  0  0  0  0  0  0  0  0
   -5.3874   29.3306    6.7231 C   0  0  0  0  0  0  0  0  0  0  0  0
   -5.0198   30.7447    6.3835 C   0  0  0  0  0  0  0  0  0  0  0  0
   -3.7563   30.7140    5.5758 C   0  0  0  0  0  0  0  0  0  0  0  0
   -3.6481   32.1994    5.3972 O   0  0  0  0  0  0  0  0  0  0  0  0
   -2.5153   30.3727    4.8054 O   0  0  0  0  0  0  0  0  0  0  0  0
   -3.3429   29.2809    5.4162 C   0  0  0  0  0  0  0  0  0  0  0  0
   -4.3510   28.4260    6.1253 C   0  0  0  0  0  0  0  0  0  0  0  0
   -4.1950   26.9342    6.1350 C   0  0  0  0  0  0  0  0  0  0  0  0
   -4.0389   25.4423    6.1446 C   0  0  0  0  0  0  0  0  0  0  0  0
   -4.5308   24.0874    6.5596 N   0  0  0  0  0  0  0  0  0  0  0  0
   -3.3667   23.4505    5.8602 C   0  0  0  0  0  0  0  0  0  0  0  0
   -3.0723   27.6280    5.3643 C   0  0  0  0  0  0  0  0  0  0  0  0
   -2.1788   28.6440    4.7168 C   0  0  0  0  0  0  0  0  0  0  0  0
   -1.0147   28.0071    4.0174 C   0  0  0  0  0  0  0  0  0  0  0  0
   -2.0228   27.1522    4.7265 C   0  0  0  0  0  0  0  0  0  0  0  0
   -3.0308   26.2973    5.4355 C   0  0  0  0  0  0  0  0  0  0  0  0
   -2.8748   24.8054    5.4452 C   0  0  0  0  0  0  0  0  0  0  0  0
   -8.2709   33.0596    7.2525 H   0  0  0  0  0  0  0  0  0  0  0  0
   -7.0795   31.8401    5.9902 H   0  0  0  0  0  0  0  0  0  0  0  0
   -8.3361   31.5043    8.6935 H   0  0  0  0  0  0  0  0  0  0  0  0
   -6.4867   30.6390    7.1539 H   0  0  0  0  0  0  0  0  0  0  0  0
   -8.4615   29.7835    7.9460 H   0  0  0  0  0  0  0  0  0  0  0  0
   -7.7760   28.4640    8.3180 H   0  0  0  0  0  0  0  0  0  0  0  0
   -5.4556   26.1225    7.6993 H   0  0  0  0  0  0  0  0  0  0  0  0
   -7.2129   27.0766    8.4074 H   0  0  0  0  0  0  0  0  0  0  0  0
   -4.7646   27.7709    6.8294 H   0  0  0  0  0  0  0  0  0  0  0  0
   -5.6589   31.0192    6.7730 H   0  0  0  0  0  0  0  0  0  0  0  0
   -4.9117   32.2301    6.2050 H   0  0  0  0  0  0  0  0  0  0  0  0
   -2.5036   32.7801    4.6208 H   0  0  0  0  0  0  0  0  0  0  0  0
   -5.3456   27.5497    6.8273 H   0  0  0  0  0  0  0  0  0  0  0  0
   -5.7019   23.5797    7.3476 H   0  0  0  0  0  0  0  0  0  0  0  0
   -2.8914   22.0421    5.6591 H   0  0  0  0  0  0  0  0  0  0  0  0
   -4.0263   28.6541    5.9003 H   0  0  0  0  0  0  0  0  0  0  0  0
   -4.0544   26.7325    6.0597 H   0  0  0  0  0  0  0  0  0  0  0  0
   -0.3281   29.2309    3.4872 H   0  0  0  0  0  0  0  0  0  0  0  0
   -0.0890   26.9453    3.5021 H   0  0  0  0  0  0  0  0  0  0  0  0
   -1.2605   25.9232    4.3282 H   0  0  0  0  0  0  0  0  0  0  0  0
   -1.6230   24.5410    4.6622 H   0  0  0  0  0  0  0  0  0  0  0  0
  1  2  1  0
  2  3  1  0
  3  4  1  0
  3  5  1  0
  5  6  1  0
  6  7  1  0
  7  8  1  0
  7  9  1  0
  9 10  1  0
 10 11  1  0
 11 12  1  0
 12 13  1  0
 13 14  1  0
 14 15  1  0
 15 16  1  0
 16 17  1  0
 17 18  1  0
 18 19  1  0
 19 20  1  0
 20 21  1  0
 11  5  1  0
 20 12  1  0
 12  5  1  0
 20 13  1  0
 10  7  1  0
 21 13  1  0
 17 10  1  0
 21 15  1  0
 19 17  1  0
  1 22  1  0
  1 23  1  0
  1 24  1  0
  2 25  1  0
  2 26  1  0
  3 27  1  0
  4 28  1  0
  4 29  1  0
  4 30  1  0
  6 31  1  0
  6 32  1  0
  8 33  1  0
 11 34  1  0
 14 35  1  0
 15 36  1  0
 16 37  1  0
 16 38  1  0
 18 39  1  0
 18 40  1  0
 19 41  1  0
 21 42  1  0
M  END
