
     RDKit          2D

 68 75  0  0  0  0  0  0  0  0999 V2000
   -3.5768   23.6335    5.3586 C   0  0  0  0  0  0  0  0  0  0  0  0
   -2.8723   24.9336    5.6103 C   0  0  0  0  0  0  0  0  0  0  0  0
   -2.1678   26.2337    5.8620 C   0  0  0  0  0  0  0  0  0  0  0  0
   -1.4633   27.5338    6.1137 C   0  0  0  0  0  0  0  0  0  0  0  0
   -0.7588   28.8340    6.3654 C   0  0  0  0  0  0  0  0  0  0  0  0
   -0.0542   30.1341    6.6170 O   0  0  0  0  0  0  0  0  0  0  0  0
   -1.7087   24.4619    4.7896 C   0  0  0  0  0  0  0  0  0  0  0  0
   -0.8128   25.6604    4.8950 C   0  0  0  0  0  0  0  0  0  0  0  0
   -0.3742   24.4634    4.1045 C   0  0  0  0  0  0  0  0  0  0  0  0
    0.9700   24.9377    3.6376 C   0  0  0  0  0  0  0  0  0  0  0  0
    2.3142   25.4121    3.1707 C   0  0  0  0  0  0  0  0  0  0  0  0
    3.6585   25.8865    2.7038 C   0  0  0  0  0  0  0  0  0  0  0  0
    4.0970   24.6895    1.9133 C   0  0  0  0  0  0  0  0  0  0  0  0
    5.4314   24.6909    1.2282 C   0  0  0  0  0  0  0  0  0  0  0  0
    4.9929   25.8880    2.0187 C   0  0  0  0  0  0  0  0  0  0  0  0
   -0.4025   23.1016    3.4762 C   0  0  0  0  0  0  0  0  0  0  0  0
   -0.8943   21.7393    3.0858 C   0  0  0  0  0  0  0  0  0  0  0  0
   -1.7468   22.6272    3.9431 C   0  0  0  0  0  0  0  0  0  0  0  0
   -3.0911   22.1528    4.4100 C   0  0  0  0  0  0  0  0  0  0  0  0
   -2.5993   23.5151    4.8004 C   0  0  0  0  0  0  0  0  0  0  0  0
   -3.7629   23.9867    5.6210 C   0  0  0  0  0  0  0  0  0  0  0  0
   -4.9265   24.4584    6.4417 C   0  0  0  0  0  0  0  0  0  0  0  0
   -4.3475   25.8008    6.7778 C   0  0  0  0  0  0  0  0  0  0  0  0
   -5.7030   25.4181    7.2938 C   0  0  0  0  0  0  0  0  0  0  0  0
   -7.0052   24.7675    7.6559 C   0  0  0  0  0  0  0  0  0  0  0  0
   -8.0888   25.3725    8.4984 F   0  0  0  0  0  0  0  0  0  0  0  0
   -7.0335   23.4057    7.0276 C   0  0  0  0  0  0  0  0  0  0  0  0
   -5.7488   23.2147    6.2772 C   0  0  0  0  0  0  0  0  0  0  0  0
   -5.7205   24.5765    6.9055 C   0  0  0  0  0  0  0  0  0  0  0  0
   -4.2813   22.3334    5.1069 H   0  0  0  0  0  0  0  0  0  0  0  0
   -4.8187   23.9442    6.1402 H   0  0  0  0  0  0  0  0  0  0  0  0
   -2.3348   23.3227    4.5769 H   0  0  0  0  0  0  0  0  0  0  0  0
   -3.7060   25.8399    6.4666 H   0  0  0  0  0  0  0  0  0  0  0  0
   -3.2395   26.6260    6.8354 H   0  0  0  0  0  0  0  0  0  0  0  0
   -0.9575   26.1677    4.9783 H   0  0  0  0  0  0  0  0  0  0  0  0
   -2.2241   27.6979    7.3958 H   0  0  0  0  0  0  0  0  0  0  0  0
   -0.7024   27.3698    4.8314 H   0  0  0  0  0  0  0  0  0  0  0  0
    0.4082   28.3592    5.5512 H   0  0  0  0  0  0  0  0  0  0  0  0
   -1.9257   29.3087    7.1795 H   0  0  0  0  0  0  0  0  0  0  0  0
   -0.7122   31.1949    7.4487 H   0  0  0  0  0  0  0  0  0  0  0  0
   -2.3513   23.1389    4.4953 H   0  0  0  0  0  0  0  0  0  0  0  0
    0.2904   26.6728    4.8059 H   0  0  0  0  0  0  0  0  0  0  0  0
   -1.3834   26.7785    5.7160 H   0  0  0  0  0  0  0  0  0  0  0  0
    1.0157   26.1930    4.4574 H   0  0  0  0  0  0  0  0  0  0  0  0
    1.2519   23.7981    2.7039 H   0  0  0  0  0  0  0  0  0  0  0  0
    1.9377   26.8218    3.5187 H   0  0  0  0  0  0  0  0  0  0  0  0
    2.6908   24.0025    2.8227 H   0  0  0  0  0  0  0  0  0  0  0  0
    3.6868   27.2482    3.3321 H   0  0  0  0  0  0  0  0  0  0  0  0
    3.2012   23.4910    1.8080 H   0  0  0  0  0  0  0  0  0  0  0  0
    5.4031   23.3292    0.5999 H   0  0  0  0  0  0  0  0  0  0  0  0
    6.7756   25.1653    0.7613 H   0  0  0  0  0  0  0  0  0  0  0  0
    5.8887   27.0864    2.1240 H   0  0  0  0  0  0  0  0  0  0  0  0
    0.8897   22.9344    2.7331 H   0  0  0  0  0  0  0  0  0  0  0  0
    0.2693   21.2677    2.2651 H   0  0  0  0  0  0  0  0  0  0  0  0
   -1.7902   20.5408    2.9804 H   0  0  0  0  0  0  0  0  0  0  0  0
   -3.1193   20.7910    3.7816 H   0  0  0  0  0  0  0  0  0  0  0  0
   -4.4497   21.8167    4.9496 H   0  0  0  0  0  0  0  0  0  0  0  0
   -1.9777   24.8449    5.1087 H   0  0  0  0  0  0  0  0  0  0  0  0
   -4.7309   22.8421    5.5698 H   0  0  0  0  0  0  0  0  0  0  0  0
   -3.2025   25.3320    5.9766 H   0  0  0  0  0  0  0  0  0  0  0  0
   -3.0012   25.8746    6.1207 H   0  0  0  0  0  0  0  0  0  0  0  0
   -4.2245   27.1760    7.3637 H   0  0  0  0  0  0  0  0  0  0  0  0
   -5.9580   26.6999    8.0299 H   0  0  0  0  0  0  0  0  0  0  0  0
   -8.3830   23.3078    7.6749 H   0  0  0  0  0  0  0  0  0  0  0  0
   -7.3439   22.0235    6.5347 H   0  0  0  0  0  0  0  0  0  0  0  0
   -5.3555   21.9943    5.4989 H   0  0  0  0  0  0  0  0  0  0  0  0
   -4.4490   25.3107    6.5986 H   0  0  0  0  0  0  0  0  0  0  0  0
   -5.0988   25.9064    7.2137 H   0  0  0  0  0  0  0  0  0  0  0  0
  1  2  1  0
  2  3  1  0
  3  4  1  0
  4  5  1  0
  5  6  1  0
  2  7  1  0
  7  8  1  0
  8  9  1  0
  9 10  1  0
 10 11  1  0
 11 12  1  0
 12 13  1  0
 13 14  1  0
 14 15  1  0
  9 16  1  0
 16 17  1  0
 17 18  1  0
 18 19  1  0
 19 20  1  0
 20 21  1  0
 21 22  1  0
 22 23  1  0
 23 24  1  0
 24 25  1  0
 25 26  1  0
 25 27  1  0
 27 28  1  0
 28 29  1  0
  9  7  1  0
 15 12  1  0
 18 16  1  0
 24 22  1  0
 29 25  1  0
 15 13  1  0
 20 18  1  0
 28 22  1  0
  1 30  1  0
  1 31  1  0
  1 32  1  0
  2 33  1  0
  3 34  1  0
  3 35  1  0
  4 36  1  0
  4 37  1  0
  5 38  1  0
  5 39  1  0
  6 40  1  0
  7 41  1  0
  8 42  1  0
  8 43  1  0
 10 44  1  0
 10 45  1  0
 11 46  1  0
 11 47  1  0
 12 48  1  0
 13 49  1  0
 14 50  1  0
 14 51  1  0
 15 52  1  0
 16 53  1  0
 17 54  1  0
 17 55  1  0
 19 56  1  0
 19 57  1  0
 20 58  1  0
 21 59  1  0
 21 60  1  0
 23 61  1  0
 23 62  1  0
 24 63  1  0
 27 64  1  0
 27 65  1  0
 28 66  1  0
 29 67  1  0
 29 68  1  0
M  END
