
     RDKit          2D

 18 17  0  0  0  0  0  0  0  0999 V2000
   -5.1711   27.6462    6.4021 C   0  0  0  0  0  0  0  0  0  0  0  0
   -6.0312   26.5091    5.9358 N   0  0  0  0  0  0  0  0  0  0  0  0
   -7.3768   26.2822    6.5586 C   0  0  0  0  0  0  0  0  0  0  0  0
   -8.7224   26.0553    7.1815 O   0  0  0  0  0  0  0  0  0  0  0  0
   -5.5458   25.5991    4.8467 C   0  0  0  0  0  0  0  0  0  0  0  0
   -6.4059   24.4622    4.3804 O   0  0  0  0  0  0  0  0  0  0  0  0
   -4.2002   25.8260    4.2238 C   0  0  0  0  0  0  0  0  0  0  0  0
   -2.8546   26.0530    3.6010 O   0  0  0  0  0  0  0  0  0  0  0  0
   -4.0743   24.3548    3.9598 O   0  0  0  0  0  0  0  0  0  0  0  0
   -4.3109   28.7831    6.8683 H   0  0  0  0  0  0  0  0  0  0  0  0
   -4.2360   27.4409    5.6540 H   0  0  0  0  0  0  0  0  0  0  0  0
   -6.2285   28.0411    7.3898 H   0  0  0  0  0  0  0  0  0  0  0  0
   -7.2722   27.6012    7.2652 H   0  0  0  0  0  0  0  0  0  0  0  0
   -7.4814   24.9632    5.8520 H   0  0  0  0  0  0  0  0  0  0  0  0
   -9.5825   24.9183    6.7152 H   0  0  0  0  0  0  0  0  0  0  0  0
   -4.1686   27.0312    4.3746 H   0  0  0  0  0  0  0  0  0  0  0  0
   -1.9945   27.1899    4.0673 H   0  0  0  0  0  0  0  0  0  0  0  0
   -2.8461   23.8158    3.2884 H   0  0  0  0  0  0  0  0  0  0  0  0
  1  2  1  0
  2  3  1  0
  3  4  1  0
  2  5  1  0
  5  6  2  0
  5  7  1  0
  7  8  1  0
  7  9  1  0
  1 10  1  0
  1 11  1  0
  1 12  1  0
  3 13  1  0
  3 14  1  0
  4 15  1  0
  7 16  1  0
  8 17  1  0
  9 18  1  0
M  END
