
     RDKit          2D

108115  0  0  0  0  0  0  0  0999 V2000
   27.6152  -24.0357  -11.1450 C   0  0  0  0  0  0  0  0  0  0  0  0
   26.6970  -24.3449   -9.9998 C   0  0  0  0  0  0  0  0  0  0  0  0
   25.3553  -23.6800   -9.9137 C   0  0  0  0  0  0  0  0  0  0  0  0
   24.0135  -23.0150   -9.8275 C   0  0  0  0  0  0  0  0  0  0  0  0
   22.6717  -22.3501   -9.7414 C   0  0  0  0  0  0  0  0  0  0  0  0
   21.3299  -21.6850   -9.6553 C   0  0  0  0  0  0  0  0  0  0  0  0
   19.9881  -21.0201   -9.5691 C   0  0  0  0  0  0  0  0  0  0  0  0
   19.9166  -20.1323  -10.7760 C   0  0  0  0  0  0  0  0  0  0  0  0
   19.1697  -19.1381  -11.6149 C   0  0  0  0  0  0  0  0  0  0  0  0
   20.1732  -18.9126  -12.7067 C   0  0  0  0  0  0  0  0  0  0  0  0
   21.1768  -18.6870  -13.7985 C   0  0  0  0  0  0  0  0  0  0  0  0
   22.1804  -18.4616  -14.8903 C   0  0  0  0  0  0  0  0  0  0  0  0
   23.1840  -18.2361  -15.9821 C   0  0  0  0  0  0  0  0  0  0  0  0
   24.1875  -18.0106  -17.0739 C   0  0  0  0  0  0  0  0  0  0  0  0
   25.1911  -17.7851  -18.1657 O   0  0  0  0  0  0  0  0  0  0  0  0
   18.5467  -19.6817  -10.3634 N   0  0  0  0  0  0  0  0  0  0  0  0
   18.6182  -20.5696   -9.1565 C   0  0  0  0  0  0  0  0  0  0  0  0
   17.2930  -20.3135   -8.5020 C   0  0  0  0  0  0  0  0  0  0  0  0
   17.2209  -21.1494   -7.2585 C   0  0  0  0  0  0  0  0  0  0  0  0
   15.8510  -20.6989   -6.8460 C   0  0  0  0  0  0  0  0  0  0  0  0
   14.4810  -20.2483   -6.4334 C   0  0  0  0  0  0  0  0  0  0  0  0
   14.6476  -20.9474   -5.1167 C   0  0  0  0  0  0  0  0  0  0  0  0
   13.2777  -20.4969   -4.7041 C   0  0  0  0  0  0  0  0  0  0  0  0
   13.1110  -19.7978   -6.0208 C   0  0  0  0  0  0  0  0  0  0  0  0
   12.9444  -19.0988   -7.3374 C   0  0  0  0  0  0  0  0  0  0  0  0
   12.7778  -18.3997   -8.6541 C   0  0  0  0  0  0  0  0  0  0  0  0
   12.6111  -17.7007   -9.9707 C   0  0  0  0  0  0  0  0  0  0  0  0
   12.4445  -17.0016  -11.2874 C   0  0  0  0  0  0  0  0  0  0  0  0
   12.2779  -16.3026  -12.6040 C   0  0  0  0  0  0  0  0  0  0  0  0
   11.4624  -19.0330   -7.1150 N   0  0  0  0  0  0  0  0  0  0  0  0
   10.5772  -18.3947   -8.1441 C   0  0  0  0  0  0  0  0  0  0  0  0
   17.4352  -22.0794   -6.1014 C   0  0  0  0  0  0  0  0  0  0  0  0
   18.5015  -21.9221   -7.1446 C   0  0  0  0  0  0  0  0  0  0  0  0
   19.3651  -21.5638   -8.3175 C   0  0  0  0  0  0  0  0  0  0  0  0
   20.5154  -22.4500   -7.9420 C   0  0  0  0  0  0  0  0  0  0  0  0
   21.6658  -23.3364   -7.5663 C   0  0  0  0  0  0  0  0  0  0  0  0
   20.9185  -23.7897   -6.3473 C   0  0  0  0  0  0  0  0  0  0  0  0
   22.0688  -24.6760   -5.9716 C   0  0  0  0  0  0  0  0  0  0  0  0
   23.4387  -25.2170   -6.2559 C   0  0  0  0  0  0  0  0  0  0  0  0
   23.6057  -26.1339   -5.0806 C   0  0  0  0  0  0  0  0  0  0  0  0
   22.2429  -25.7486   -4.5863 C   0  0  0  0  0  0  0  0  0  0  0  0
   23.7727  -27.0509   -3.9053 C   0  0  0  0  0  0  0  0  0  0  0  0
   23.3308  -28.4810   -4.0009 C   0  0  0  0  0  0  0  0  0  0  0  0
   22.8161  -24.2228   -7.1907 C   0  0  0  0  0  0  0  0  0  0  0  0
   28.9570  -24.7007  -11.2311 H   0  0  0  0  0  0  0  0  0  0  0  0
   27.1916  -23.0615  -12.2040 H   0  0  0  0  0  0  0  0  0  0  0  0
   27.1207  -25.3191   -8.9409 H   0  0  0  0  0  0  0  0  0  0  0  0
   25.0697  -24.4209   -8.6411 H   0  0  0  0  0  0  0  0  0  0  0  0
   25.6408  -22.9390  -11.1863 H   0  0  0  0  0  0  0  0  0  0  0  0
   23.8775  -23.8613   -8.5965 H   0  0  0  0  0  0  0  0  0  0  0  0
   24.3153  -22.2440  -11.0783 H   0  0  0  0  0  0  0  0  0  0  0  0
   22.9566  -21.6103  -11.0148 H   0  0  0  0  0  0  0  0  0  0  0  0
   22.3868  -23.0898   -8.4679 H   0  0  0  0  0  0  0  0  0  0  0  0
   21.3771  -22.5658   -8.4419 H   0  0  0  0  0  0  0  0  0  0  0  0
   21.5616  -21.0842  -10.6855 H   0  0  0  0  0  0  0  0  0  0  0  0
   21.0075  -20.3936  -11.2430 H   0  0  0  0  0  0  0  0  0  0  0  0
   18.0743  -18.2223  -12.0746 H   0  0  0  0  0  0  0  0  0  0  0  0
   21.1065  -19.8862  -12.0501 H   0  0  0  0  0  0  0  0  0  0  0  0
   19.3692  -17.9187  -13.4915 H   0  0  0  0  0  0  0  0  0  0  0  0
   20.2416  -17.7172  -14.4580 H   0  0  0  0  0  0  0  0  0  0  0  0
   22.1120  -19.6569  -13.1391 H   0  0  0  0  0  0  0  0  0  0  0  0
   21.3609  -17.3163  -15.4071 H   0  0  0  0  0  0  0  0  0  0  0  0
   22.9997  -19.6068  -14.3736 H   0  0  0  0  0  0  0  0  0  0  0  0
   22.5017  -16.9501  -16.3437 H   0  0  0  0  0  0  0  0  0  0  0  0
   23.8662  -19.5221  -15.6205 H   0  0  0  0  0  0  0  0  0  0  0  0
   24.8755  -19.2918  -16.7061 H   0  0  0  0  0  0  0  0  0  0  0  0
   23.4996  -16.7294  -17.4417 H   0  0  0  0  0  0  0  0  0  0  0  0
   26.2983  -18.7736  -18.3824 H   0  0  0  0  0  0  0  0  0  0  0  0
   17.0787  -19.3834   -9.6592 H   0  0  0  0  0  0  0  0  0  0  0  0
   16.3952  -19.9491   -8.3299 H   0  0  0  0  0  0  0  0  0  0  0  0
   15.8493  -21.3378   -5.4888 H   0  0  0  0  0  0  0  0  0  0  0  0
   15.6329  -20.2076   -7.6704 H   0  0  0  0  0  0  0  0  0  0  0  0
   14.4825  -19.6094   -7.7906 H   0  0  0  0  0  0  0  0  0  0  0  0
   14.8143  -21.6464   -3.8001 H   0  0  0  0  0  0  0  0  0  0  0  0
   13.9198  -20.6252   -5.0733 H   0  0  0  0  0  0  0  0  0  0  0  0
   11.9077  -20.0463   -4.2916 H   0  0  0  0  0  0  0  0  0  0  0  0
   13.4443  -21.1959   -3.3875 H   0  0  0  0  0  0  0  0  0  0  0  0
   11.7411  -19.3473   -5.6082 H   0  0  0  0  0  0  0  0  0  0  0  0
   14.3950  -19.0788   -7.7188 H   0  0  0  0  0  0  0  0  0  0  0  0
   11.3404  -17.9708   -8.6580 H   0  0  0  0  0  0  0  0  0  0  0  0
   14.2176  -18.6674   -8.9785 H   0  0  0  0  0  0  0  0  0  0  0  0
   13.9928  -18.1256  -10.3712 H   0  0  0  0  0  0  0  0  0  0  0  0
   11.2194  -17.1937   -9.7338 H   0  0  0  0  0  0  0  0  0  0  0  0
   11.6052  -15.9507  -10.6232 H   0  0  0  0  0  0  0  0  0  0  0  0
   13.2838  -18.0525  -11.9516 H   0  0  0  0  0  0  0  0  0  0  0  0
   12.1112  -15.6035  -13.9207 H   0  0  0  0  0  0  0  0  0  0  0  0
   11.5722  -15.1725  -11.9148 H   0  0  0  0  0  0  0  0  0  0  0  0
   12.9835  -17.4326  -13.2933 H   0  0  0  0  0  0  0  0  0  0  0  0
    9.0952  -18.3290   -7.9216 H   0  0  0  0  0  0  0  0  0  0  0  0
   11.0027  -17.7770   -9.4429 H   0  0  0  0  0  0  0  0  0  0  0  0
   16.2021  -22.0117   -5.2500 H   0  0  0  0  0  0  0  0  0  0  0  0
   18.1000  -23.0749   -5.1975 H   0  0  0  0  0  0  0  0  0  0  0  0
   19.3458  -22.9077   -6.3926 H   0  0  0  0  0  0  0  0  0  0  0  0
   21.5190  -22.2243   -9.0336 H   0  0  0  0  0  0  0  0  0  0  0  0
   19.9137  -23.0084   -6.6864 H   0  0  0  0  0  0  0  0  0  0  0  0
   20.6623  -23.5617   -6.4744 H   0  0  0  0  0  0  0  0  0  0  0  0
   20.1712  -24.2429   -5.1281 H   0  0  0  0  0  0  0  0  0  0  0  0
   21.8538  -24.7594   -5.6878 H   0  0  0  0  0  0  0  0  0  0  0  0
   21.3417  -25.1446   -4.7462 H   0  0  0  0  0  0  0  0  0  0  0  0
   24.7506  -25.4395   -6.9483 H   0  0  0  0  0  0  0  0  0  0  0  0
   24.9685  -26.5193   -5.5748 H   0  0  0  0  0  0  0  0  0  0  0  0
   20.8801  -25.3632   -4.0921 H   0  0  0  0  0  0  0  0  0  0  0  0
   22.4099  -26.6654   -3.4109 H   0  0  0  0  0  0  0  0  0  0  0  0
   22.0752  -26.5449   -3.3262 H   0  0  0  0  0  0  0  0  0  0  0  0
   24.3253  -26.8807   -2.5211 H   0  0  0  0  0  0  0  0  0  0  0  0
   23.4978  -29.3979   -2.8257 H   0  0  0  0  0  0  0  0  0  0  0  0
   22.7217  -28.9943   -5.2720 H   0  0  0  0  0  0  0  0  0  0  0  0
   23.9400  -24.1346   -8.1803 H   0  0  0  0  0  0  0  0  0  0  0  0
  1  2  2  3
  2  3  1  0
  3  4  1  0
  4  5  1  0
  5  6  1  0
  6  7  1  0
  7  8  1  0
  8  9  1  0
  9 10  1  0
 10 11  1  0
 11 12  1  0
 12 13  1  0
 13 14  1  0
 14 15  1  0
  9 16  1  0
 16 17  1  0
 17 18  1  0
 18 19  1  0
 19 20  1  0
 20 21  1  0
 21 22  1  0
 22 23  1  0
 23 24  1  0
 24 25  1  0
 25 26  1  0
 26 27  1  0
 27 28  1  0
 28 29  1  0
 25 30  1  0
 30 31  2  3
 19 32  1  0
 32 33  1  0
 33 34  1  0
 34 35  1  0
 35 36  1  0
 36 37  1  0
 37 38  1  0
 38 39  1  0
 39 40  1  0
 40 41  1  0
 40 42  1  0
 42 43  2  3
 39 44  1  0
 17  7  1  0
 33 19  1  0
 44 36  1  0
 34  7  1  0
 44 38  1  0
 16  8  1  0
 34 17  1  0
 24 21  1  0
  1 45  1  0
  1 46  1  0
  2 47  1  0
  3 48  1  0
  3 49  1  0
  4 50  1  0
  4 51  1  0
  5 52  1  0
  5 53  1  0
  6 54  1  0
  6 55  1  0
  8 56  1  0
  9 57  1  0
 10 58  1  0
 10 59  1  0
 11 60  1  0
 11 61  1  0
 12 62  1  0
 12 63  1  0
 13 64  1  0
 13 65  1  0
 14 66  1  0
 14 67  1  0
 15 68  1  0
 18 69  1  0
 18 70  1  0
 20 71  1  0
 20 72  1  0
 21 73  1  0
 22 74  1  0
 22 75  1  0
 23 76  1  0
 23 77  1  0
 24 78  1  0
 25 79  1  0
 26 80  1  0
 26 81  1  0
 27 82  1  0
 27 83  1  0
 28 84  1  0
 28 85  1  0
 29 86  1  0
 29 87  1  0
 29 88  1  0
 31 89  1  0
 31 90  1  0
 32 91  1  0
 32 92  1  0
 33 93  1  0
 35 94  1  0
 35 95  1  0
 36 96  1  0
 37 97  1  0
 37 98  1  0
 38 99  1  0
 39100  1  0
 40101  1  0
 41102  1  0
 41103  1  0
 41104  1  0
 42105  1  0
 43106  1  0
 43107  1  0
 44108  1  0
M  END
