
     RDKit          2D

 54 58  0  0  0  0  0  0  0  0999 V2000
   -1.3181   27.7673    5.8406 C   0  0  0  0  0  0  0  0  0  0  0  0
   -1.4741   29.1787    5.3574 C   0  0  0  0  0  0  0  0  0  0  0  0
   -0.6446   29.6749    4.2103 N   0  0  0  0  0  0  0  0  0  0  0  0
   -1.6302   30.5902    4.8744 C   0  0  0  0  0  0  0  0  0  0  0  0
   -2.4597   30.0941    6.0215 C   0  0  0  0  0  0  0  0  0  0  0  0
   -3.0137   29.1684    7.0637 C   0  0  0  0  0  0  0  0  0  0  0  0
   -3.8068   30.4053    7.3657 C   0  0  0  0  0  0  0  0  0  0  0  0
   -4.8116   30.3985    8.4794 C   0  0  0  0  0  0  0  0  0  0  0  0
   -5.6636   29.9496    9.6294 N   0  0  0  0  0  0  0  0  0  0  0  0
   -5.3280   28.5175    9.9235 N   0  0  0  0  0  0  0  0  0  0  0  0
   -4.2686   28.0814    8.9553 C   0  0  0  0  0  0  0  0  0  0  0  0
   -3.2255   27.9249    7.8753 C   0  0  0  0  0  0  0  0  0  0  0  0
   -2.1664   27.4414    6.9294 O   0  0  0  0  0  0  0  0  0  0  0  0
   -3.9494   29.2439    8.0627 C   0  0  0  0  0  0  0  0  0  0  0  0
   -2.9781   28.2907    7.4320 N   0  0  0  0  0  0  0  0  0  0  0  0
   -2.8587   26.8885    7.9513 C   0  0  0  0  0  0  0  0  0  0  0  0
   -3.9115   27.4844    8.8381 N   0  0  0  0  0  0  0  0  0  0  0  0
   -3.2079   25.7516    8.8653 C   0  0  0  0  0  0  0  0  0  0  0  0
   -2.6436   24.3620    8.8871 C   0  0  0  0  0  0  0  0  0  0  0  0
   -1.5907   23.7660    8.0003 C   0  0  0  0  0  0  0  0  0  0  0  0
   -0.8422   24.4126    6.8727 C   0  0  0  0  0  0  0  0  0  0  0  0
   -0.9616   25.8148    6.3533 C   0  0  0  0  0  0  0  0  0  0  0  0
   -1.8590   26.9166    6.8334 C   0  0  0  0  0  0  0  0  0  0  0  0
   -0.9136   26.3390    6.0558 H   0  0  0  0  0  0  0  0  0  0  0  0
   -0.2720   27.5245    4.7933 H   0  0  0  0  0  0  0  0  0  0  0  0
   -2.3642   28.0101    6.8878 H   0  0  0  0  0  0  0  0  0  0  0  0
    0.4032   29.4328    3.1647 H   0  0  0  0  0  0  0  0  0  0  0  0
   -1.7862   32.0017    4.3912 H   0  0  0  0  0  0  0  0  0  0  0  0
   -3.1612   31.4097    6.1858 H   0  0  0  0  0  0  0  0  0  0  0  0
   -1.9881   28.3941    6.2899 H   0  0  0  0  0  0  0  0  0  0  0  0
   -4.1945   31.8350    7.1302 H   0  0  0  0  0  0  0  0  0  0  0  0
   -3.0638   31.0614    6.2399 H   0  0  0  0  0  0  0  0  0  0  0  0
   -4.9494   31.8056    7.9781 H   0  0  0  0  0  0  0  0  0  0  0  0
   -6.6738   30.7859   10.3574 H   0  0  0  0  0  0  0  0  0  0  0  0
   -5.9436   27.6703   10.9974 H   0  0  0  0  0  0  0  0  0  0  0  0
   -4.1127   26.6699    9.4386 H   0  0  0  0  0  0  0  0  0  0  0  0
   -3.1983   26.5533    8.4822 H   0  0  0  0  0  0  0  0  0  0  0  0
   -1.6614   26.0323    7.0257 H   0  0  0  0  0  0  0  0  0  0  0  0
   -3.2197   29.9222    6.9413 H   0  0  0  0  0  0  0  0  0  0  0  0
   -2.1262   28.7396    6.2820 H   0  0  0  0  0  0  0  0  0  0  0  0
   -4.6393   26.8031    9.9589 H   0  0  0  0  0  0  0  0  0  0  0  0
   -4.5582   28.8350    8.9255 H   0  0  0  0  0  0  0  0  0  0  0  0
   -4.2646   26.2949    9.7808 H   0  0  0  0  0  0  0  0  0  0  0  0
   -4.0422   25.2655   10.0132 H   0  0  0  0  0  0  0  0  0  0  0  0
   -3.5930   24.1594   10.0306 H   0  0  0  0  0  0  0  0  0  0  0  0
   -2.6533   23.0057    9.5279 H   0  0  0  0  0  0  0  0  0  0  0  0
   -1.8153   22.5314    8.8220 H   0  0  0  0  0  0  0  0  0  0  0  0
   -0.7686   22.5609    7.6514 H   0  0  0  0  0  0  0  0  0  0  0  0
   -0.1727   23.0755    6.7539 H   0  0  0  0  0  0  0  0  0  0  0  0
    0.1929   24.2660    5.7969 H   0  0  0  0  0  0  0  0  0  0  0  0
    0.0978   25.3822    5.3835 H   0  0  0  0  0  0  0  0  0  0  0  0
   -0.4931   26.8372    5.3607 H   0  0  0  0  0  0  0  0  0  0  0  0
   -1.0247   27.4026    5.6855 H   0  0  0  0  0  0  0  0  0  0  0  0
   -1.8068   28.2534    6.1548 H   0  0  0  0  0  0  0  0  0  0  0  0
  1  2  1  0
  2  3  1  0
  3  4  1  0
  4  5  1  0
  5  6  1  0
  6  7  1  0
  7  8  1  0
  8  9  1  0
  9 10  1  0
 10 11  1  0
 11 12  1  0
 12 13  1  0
 11 14  1  0
 14 15  1  0
 15 16  1  0
 16 17  1  0
 16 18  1  0
 18 19  1  0
 19 20  1  0
 20 21  1  0
 21 22  1  0
 22 23  1  0
  4  2  1  0
 12  6  1  0
 23 16  1  0
  5  2  1  0
 14  8  1  0
  1 24  1  0
  1 25  1  0
  1 26  1  0
  3 27  1  0
  4 28  1  0
  5 29  1  0
  6 30  1  0
  7 31  1  0
  7 32  1  0
  8 33  1  0
  9 34  1  0
 10 35  1  0
 11 36  1  0
 12 37  1  0
 13 38  1  0
 14 39  1  0
 15 40  1  0
 17 41  1  0
 17 42  1  0
 18 43  1  0
 18 44  1  0
 19 45  1  0
 19 46  1  0
 20 47  1  0
 20 48  1  0
 21 49  1  0
 21 50  1  0
 22 51  1  0
 22 52  1  0
 23 53  1  0
 23 54  1  0
M  END
