
     RDKit          2D

 25 26  0  0  0  0  0  0  0  0999 V2000
    1.4750   22.8650    3.8244 N   0  0  0  0  0  0  0  0  0  0  0  0
    0.5845   24.0329    4.1293 C   0  0  0  0  0  0  0  0  0  0  0  0
    1.6149   25.1113    4.2886 C   0  0  0  0  0  0  0  0  0  0  0  0
    2.6451   26.1899    4.4479 C   0  0  0  0  0  0  0  0  0  0  0  0
    3.7310   25.1940    4.1663 C   0  0  0  0  0  0  0  0  0  0  0  0
    4.7614   26.2725    4.3256 C   0  0  0  0  0  0  0  0  0  0  0  0
    3.6754   27.2684    4.6073 N   0  0  0  0  0  0  0  0  0  0  0  0
   -0.7550   23.3601    4.0758 C   0  0  0  0  0  0  0  0  0  0  0  0
   -0.6638   24.8263    4.3788 C   0  0  0  0  0  0  0  0  0  0  0  0
   -2.1193   25.1495    4.5428 O   0  0  0  0  0  0  0  0  0  0  0  0
   -0.0670   26.1803    4.6248 O   0  0  0  0  0  0  0  0  0  0  0  0
    0.8783   21.5110    3.5784 H   0  0  0  0  0  0  0  0  0  0  0  0
    2.9623   23.0510    3.7656 H   0  0  0  0  0  0  0  0  0  0  0  0
    2.1771   24.4503    4.1118 H   0  0  0  0  0  0  0  0  0  0  0  0
    0.8910   26.2158    4.5696 H   0  0  0  0  0  0  0  0  0  0  0  0
    1.5593   27.1857    4.7295 H   0  0  0  0  0  0  0  0  0  0  0  0
    4.8169   24.1983    3.8847 H   0  0  0  0  0  0  0  0  0  0  0  0
    3.2053   24.4904    4.0527 H   0  0  0  0  0  0  0  0  0  0  0  0
    5.7916   27.3510    4.4850 H   0  0  0  0  0  0  0  0  0  0  0  0
    5.8472   25.2767    4.0440 H   0  0  0  0  0  0  0  0  0  0  0  0
    3.6362   28.7351    4.9191 H   0  0  0  0  0  0  0  0  0  0  0  0
   -0.3298   21.9585    3.7524 H   0  0  0  0  0  0  0  0  0  0  0  0
   -2.2422   23.1740    4.1346 H   0  0  0  0  0  0  0  0  0  0  0  0
   -2.5445   26.5512    4.8663 H   0  0  0  0  0  0  0  0  0  0  0  0
   -0.9574   27.3483    4.9296 H   0  0  0  0  0  0  0  0  0  0  0  0
  1  2  1  0
  2  3  1  0
  3  4  1  0
  4  5  1  0
  5  6  1  0
  6  7  1  0
  2  8  1  0
  8  9  1  0
  9 10  1  0
  9 11  1  0
  9  2  1  0
  7  4  1  0
  1 12  1  0
  1 13  1  0
  3 14  1  0
  3 15  1  0
  4 16  1  0
  5 17  1  0
  5 18  1  0
  6 19  1  0
  6 20  1  0
  7 21  1  0
  8 22  1  0
  8 23  1  0
 10 24  1  0
 11 25  1  0
M  END
