
     RDKit          2D

 75 82  0  0  0  0  0  0  0  0999 V2000
   -3.0589   29.6767   -1.2695 C   0  0  0  0  0  0  0  0  0  0  0  0
   -2.9634   29.6100    0.2260 C   0  0  0  0  0  0  0  0  0  0  0  0
   -2.8679   29.5434    1.7214 C   0  0  0  0  0  0  0  0  0  0  0  0
   -2.9322   28.1119    0.1571 C   0  0  0  0  0  0  0  0  0  0  0  0
   -2.9010   26.6138    0.0884 C   0  0  0  0  0  0  0  0  0  0  0  0
   -2.8697   25.1157    0.0197 N   0  0  0  0  0  0  0  0  0  0  0  0
   -2.7685   24.3091    1.2801 C   0  0  0  0  0  0  0  0  0  0  0  0
   -2.6673   23.5023    2.5407 N   0  0  0  0  0  0  0  0  0  0  0  0
   -2.5685   23.4358    4.0360 C   0  0  0  0  0  0  0  0  0  0  0  0
   -2.5909   22.1716    3.2288 C   0  0  0  0  0  0  0  0  0  0  0  0
   -2.4920   22.1051    4.7240 C   0  0  0  0  0  0  0  0  0  0  0  0
   -2.4156   20.7744    5.4121 C   0  0  0  0  0  0  0  0  0  0  0  0
   -2.3143   19.9676    6.6727 O   0  0  0  0  0  0  0  0  0  0  0  0
   -2.2919   21.2318    7.4799 C   0  0  0  0  0  0  0  0  0  0  0  0
   -2.3231   22.7299    7.5486 C   0  0  0  0  0  0  0  0  0  0  0  0
   -2.2243   22.6633    9.0439 C   0  0  0  0  0  0  0  0  0  0  0  0
   -2.2019   23.9273    9.8510 C   0  0  0  0  0  0  0  0  0  0  0  0
   -2.2783   25.2580    9.1630 C   0  0  0  0  0  0  0  0  0  0  0  0
   -2.3262   26.7449    8.9710 C   0  0  0  0  0  0  0  0  0  0  0  0
   -2.3741   28.2319    8.7792 C   0  0  0  0  0  0  0  0  0  0  0  0
   -2.3877   29.6957    9.1065 C   0  0  0  0  0  0  0  0  0  0  0  0
   -2.2919   28.6817   10.2078 C   0  0  0  0  0  0  0  0  0  0  0  0
   -2.3772   25.3246    7.6677 C   0  0  0  0  0  0  0  0  0  0  0  0
   -2.3996   24.0606    6.8606 C   0  0  0  0  0  0  0  0  0  0  0  0
   -2.3931   22.0385    6.2193 C   0  0  0  0  0  0  0  0  0  0  0  0
   -3.1274   23.0694    0.5157 N   0  0  0  0  0  0  0  0  0  0  0  0
   -2.7118   21.8710   -0.2851 C   0  0  0  0  0  0  0  0  0  0  0  0
   -4.1646   22.1205   -0.0076 C   0  0  0  0  0  0  0  0  0  0  0  0
   -4.7703   20.9430   -0.7122 C   0  0  0  0  0  0  0  0  0  0  0  0
   -5.4071   22.7789    0.5147 C   0  0  0  0  0  0  0  0  0  0  0  0
   -6.6496   23.4374    1.0369 C   0  0  0  0  0  0  0  0  0  0  0  0
       nan       nan       nan C   0  0  0  0  0  0  0  0  0  0  0  0
   -3.1543   29.7433   -2.7650 H   0  0  0  0  0  0  0  0  0  0  0  0
   -1.7580   30.4219   -1.3193 H   0  0  0  0  0  0  0  0  0  0  0  0
   -3.8281   29.2447   -1.3480 H   0  0  0  0  0  0  0  0  0  0  0  0
   -2.9946   31.1081    0.2947 H   0  0  0  0  0  0  0  0  0  0  0  0
   -2.7724   29.4768    3.2169 H   0  0  0  0  0  0  0  0  0  0  0  0
   -2.8885   30.4164    1.8700 H   0  0  0  0  0  0  0  0  0  0  0  0
   -2.8210   28.0457    1.6517 H   0  0  0  0  0  0  0  0  0  0  0  0
   -2.9876   28.0432   -0.7242 H   0  0  0  0  0  0  0  0  0  0  0  0
   -2.8722   27.9651    1.0286 H   0  0  0  0  0  0  0  0  0  0  0  0
   -2.4189   26.5587    1.5078 H   0  0  0  0  0  0  0  0  0  0  0  0
   -3.3830   26.6689   -1.3310 H   0  0  0  0  0  0  0  0  0  0  0  0
   -2.9485   24.5917   -1.3836 H   0  0  0  0  0  0  0  0  0  0  0  0
   -2.4097   25.5487    2.0447 H   0  0  0  0  0  0  0  0  0  0  0  0
   -2.5461   24.6998    4.8431 H   0  0  0  0  0  0  0  0  0  0  0  0
   -2.6008   20.8187    2.5813 H   0  0  0  0  0  0  0  0  0  0  0  0
   -2.4634   19.7621    4.3062 H   0  0  0  0  0  0  0  0  0  0  0  0
   -2.1884   20.7797    8.9064 H   0  0  0  0  0  0  0  0  0  0  0  0
   -2.1478   21.3326    9.7319 H   0  0  0  0  0  0  0  0  0  0  0  0
   -2.1030   23.8608   11.3463 H   0  0  0  0  0  0  0  0  0  0  0  0
   -2.1961   25.7078   10.5916 H   0  0  0  0  0  0  0  0  0  0  0  0
   -2.2397   26.7556   10.3182 H   0  0  0  0  0  0  0  0  0  0  0  0
   -2.3893   26.7371    7.9890 H   0  0  0  0  0  0  0  0  0  0  0  0
   -2.4730   28.2984    7.2839 H   0  0  0  0  0  0  0  0  0  0  0  0
   -2.4913   30.2706    7.7250 H   0  0  0  0  0  0  0  0  0  0  0  0
   -2.3653   30.9597    9.9138 H   0  0  0  0  0  0  0  0  0  0  0  0
   -2.2362   29.5937   11.3974 H   0  0  0  0  0  0  0  0  0  0  0  0
   -2.2159   27.5688   10.9682 H   0  0  0  0  0  0  0  0  0  0  0  0
   -2.4808   25.8996    6.2862 H   0  0  0  0  0  0  0  0  0  0  0  0
   -2.3942   26.3039    7.7641 H   0  0  0  0  0  0  0  0  0  0  0  0
   -2.4553   23.1486    5.6709 H   0  0  0  0  0  0  0  0  0  0  0  0
   -2.4954   25.0745    5.7593 H   0  0  0  0  0  0  0  0  0  0  0  0
   -1.2155   21.9068   -0.3836 H   0  0  0  0  0  0  0  0  0  0  0  0
   -2.6302   20.6126   -1.0973 H   0  0  0  0  0  0  0  0  0  0  0  0
   -5.3761   19.7654   -1.4169 H   0  0  0  0  0  0  0  0  0  0  0  0
   -6.2449   21.1062   -0.4902 H   0  0  0  0  0  0  0  0  0  0  0  0
   -3.4859   20.3410   -1.1997 H   0  0  0  0  0  0  0  0  0  0  0  0
   -5.0740   24.0252    1.2801 H   0  0  0  0  0  0  0  0  0  0  0  0
   -7.8921   24.0958    1.5592 H   0  0  0  0  0  0  0  0  0  0  0  0
   -7.6288   22.4448    0.4838 H   0  0  0  0  0  0  0  0  0  0  0  0
   -5.8155   24.5182    1.6584 H   0  0  0  0  0  0  0  0  0  0  0  0
       nan       nan       nan H   0  0  0  0  0  0  0  0  0  0  0  0
       nan       nan       nan H   0  0  0  0  0  0  0  0  0  0  0  0
       nan       nan       nan H   0  0  0  0  0  0  0  0  0  0  0  0
  1  2  1  0
  2  3  1  0
  2  4  1  0
  4  5  1  0
  5  6  1  0
  6  7  1  0
  7  8  1  0
  8  9  1  0
  9 10  1  0
 10 11  1  0
 11 12  1  0
 12 13  1  0
 13 14  1  0
 14 15  1  0
 15 16  1  0
 16 17  2  0
 17 18  1  0
 18 19  1  0
 19 20  1  0
 20 21  1  0
 21 22  1  0
 18 23  1  0
 23 24  1  0
 15 25  1  0
  7 26  1  0
 26 27  1  0
 27 28  1  0
 28 29  1  0
 28 30  1  0
 30 31  1  0
 30 32  1  0
 10  8  1  0
 25 11  1  0
 28 26  1  0
 11  9  1  0
 25 12  1  0
 25 14  1  0
 24 15  1  0
 22 20  1  0
  1 33  1  0
  1 34  1  0
  1 35  1  0
  2 36  1  0
  3 37  1  0
  3 38  1  0
  3 39  1  0
  4 40  1  0
  4 41  1  0
  5 42  1  0
  5 43  1  0
  6 44  1  0
  7 45  1  0
  9 46  1  0
 10 47  1  0
 12 48  1  0
 14 49  1  0
 16 50  1  0
 17 51  1  0
 18 52  1  0
 19 53  1  0
 19 54  1  0
 20 55  1  0
 21 56  1  0
 21 57  1  0
 22 58  1  0
 22 59  1  0
 23 60  1  0
 23 61  1  0
 24 62  1  0
 24 63  1  0
 27 64  1  0
 27 65  1  0
 29 66  1  0
 29 67  1  0
 29 68  1  0
 30 69  1  0
 31 70  1  0
 31 71  1  0
 31 72  1  0
 32 73  1  0
 32 74  1  0
 32 75  1  0
M  END
