
     RDKit          2D

108110  0  0  0  0  0  0  0  0999 V2000
   19.9783  -24.8291   -2.4098 C   0  0  0  0  0  0  0  0  0  0  0  0
   20.6316  -25.2505   -3.6926 C   0  0  0  0  0  0  0  0  0  0  0  0
   20.7624  -24.2740   -4.8238 C   0  0  0  0  0  0  0  0  0  0  0  0
   20.8931  -23.2977   -5.9550 C   0  0  0  0  0  0  0  0  0  0  0  0
   21.0238  -22.3213   -7.0862 C   0  0  0  0  0  0  0  0  0  0  0  0
   21.1545  -21.3450   -8.2174 C   0  0  0  0  0  0  0  0  0  0  0  0
   19.5324  -22.3065   -7.2457 C   0  0  0  0  0  0  0  0  0  0  0  0
   19.5765  -20.8328   -7.5218 N   0  0  0  0  0  0  0  0  0  0  0  0
   20.8902  -20.1088   -7.5218 O   0  0  0  0  0  0  0  0  0  0  0  0
   20.9344  -18.6351   -7.7979 C   0  0  0  0  0  0  0  0  0  0  0  0
   18.0410  -22.2917   -7.4052 C   0  0  0  0  0  0  0  0  0  0  0  0
   18.2989  -21.0645   -8.2283 N   0  0  0  0  0  2  0  0  0  0  0  0
   16.9781  -20.5484   -8.7175 C   0  0  0  0  0  0  0  0  0  0  0  0
   15.8319  -19.8101   -9.3429 C   0  0  0  0  0  0  0  0  0  0  0  0
   16.6793  -18.5763   -9.4398 O   0  0  0  0  0  0  0  0  0  0  0  0
   14.6856  -19.0719   -9.9683 C   0  0  0  0  0  0  0  0  0  0  0  0
   13.5394  -18.3337  -10.5936 O   0  0  0  0  0  0  0  0  0  0  0  0
   13.8002  -17.1303  -11.4501 C   0  0  0  0  0  0  0  0  0  0  0  0
   15.9039  -21.4566   -8.1968 N   0  0  0  0  0  2  0  0  0  0  0  0
   16.5608  -22.5340   -7.3858 C   0  0  0  0  0  0  0  0  0  0  0  0
   16.6146  -23.7643   -6.5294 C   0  0  0  0  0  0  0  0  0  0  0  0
   15.2939  -23.2482   -7.0186 Sb  0  0  0  0  0  3  0  0  0  0  0  0
   13.7999  -23.3626   -7.0889 C   0  0  0  0  0  0  0  0  0  0  0  0
   13.7459  -22.1318   -7.9445 O   0  0  0  0  0  0  0  0  0  0  0  0
   12.4252  -21.6159   -8.4341 O   0  0  0  0  0  0  0  0  0  0  0  0
   13.8538  -24.5936   -6.2333 N   0  0  0  0  0  0  0  0  0  0  0  0
   12.5870  -25.3086   -5.8673 C   0  0  0  0  0  0  0  0  0  0  0  0
   11.3203  -26.0237   -5.5014 C   0  0  0  0  0  0  0  0  0  0  0  0
   10.0535  -26.7387   -5.1354 C   0  0  0  0  0  0  0  0  0  0  0  0
    8.7868  -27.4538   -4.7694 C   0  0  0  0  0  0  0  0  0  0  0  0
   15.1745  -25.1093   -5.7438 N   0  0  0  0  0  0  0  0  0  0  0  0
   15.2285  -26.3402   -4.8882 C   0  0  0  0  0  0  0  0  0  0  0  0
   15.2824  -27.5711   -4.0326 C   0  0  0  0  0  0  0  0  0  0  0  0
   15.3363  -28.8020   -3.1771 N   0  0  0  0  0  0  0  0  0  0  0  0
   15.2558  -28.6817   -1.6841 C   0  0  0  0  0  0  0  0  0  0  0  0
   13.7623  -28.8022   -1.7550 C   0  0  0  0  0  0  0  0  0  0  0  0
   16.7492  -28.5613   -1.6131 C   0  0  0  0  0  0  0  0  0  0  0  0
   15.1751  -28.5614   -0.1910 C   0  0  0  0  0  0  0  0  0  0  0  0
   16.6602  -28.4691   -0.3798 C   0  0  0  0  0  0  0  0  0  0  0  0
   17.5585  -28.3030    0.8098 C   0  0  0  0  0  0  0  0  0  0  0  0
   16.9718  -28.2293    2.1883 C   0  0  0  0  0  0  0  0  0  0  0  0
   15.4865  -28.3217    2.3772 C   0  0  0  0  0  0  0  0  0  0  0  0
   14.5882  -28.4878    1.1874 C   0  0  0  0  0  0  0  0  0  0  0  0
   19.4302  -24.7124   -5.3560 O   0  0  0  0  0  0  0  0  0  0  0  0
   18.5867  -25.6712   -4.5690 C   0  0  0  0  0  0  0  0  0  0  0  0
   19.8475  -25.8055   -1.2786 H   0  0  0  0  0  0  0  0  0  0  0  0
   19.3617  -23.5503   -1.9254 H   0  0  0  0  0  0  0  0  0  0  0  0
   21.1541  -26.6483   -3.8442 H   0  0  0  0  0  0  0  0  0  0  0  0
   22.0945  -23.8357   -4.2915 H   0  0  0  0  0  0  0  0  0  0  0  0
   20.8921  -22.2905   -4.8434 H   0  0  0  0  0  0  0  0  0  0  0  0
   20.8779  -24.4323   -6.9360 H   0  0  0  0  0  0  0  0  0  0  0  0
   22.5152  -22.3362   -6.9267 H   0  0  0  0  0  0  0  0  0  0  0  0
   20.6448  -20.6895   -9.4666 H   0  0  0  0  0  0  0  0  0  0  0  0
   19.8233  -21.7848   -8.7508 H   0  0  0  0  0  0  0  0  0  0  0  0
   22.4777  -20.6820   -7.9736 H   0  0  0  0  0  0  0  0  0  0  0  0
   19.3066  -23.7674   -6.9911 H   0  0  0  0  0  0  0  0  0  0  0  0
   18.5344  -19.7984   -7.8284 H   0  0  0  0  0  0  0  0  0  0  0  0
   20.9786  -17.1614   -8.0741 H   0  0  0  0  0  0  0  0  0  0  0  0
   19.4352  -18.5945   -7.8211 H   0  0  0  0  0  0  0  0  0  0  0  0
   22.4337  -18.6757   -7.7748 H   0  0  0  0  0  0  0  0  0  0  0  0
   18.2765  -23.4988   -6.5467 H   0  0  0  0  0  0  0  0  0  0  0  0
   17.8127  -19.4858   -9.3690 H   0  0  0  0  0  0  0  0  0  0  0  0
   14.9844  -21.0440   -9.2460 H   0  0  0  0  0  0  0  0  0  0  0  0
   18.1732  -18.4962   -9.3302 H   0  0  0  0  0  0  0  0  0  0  0  0
   13.7280  -20.0761   -9.3985 H   0  0  0  0  0  0  0  0  0  0  0  0
   15.4964  -17.9852  -10.6101 H   0  0  0  0  0  0  0  0  0  0  0  0
   14.0612  -15.9268  -12.3067 H   0  0  0  0  0  0  0  0  0  0  0  0
   12.3253  -16.9643  -11.6663 H   0  0  0  0  0  0  0  0  0  0  0  0
   15.2753  -17.2962  -11.2340 H   0  0  0  0  0  0  0  0  0  0  0  0
   18.0590  -24.0147   -6.2116 H   0  0  0  0  0  0  0  0  0  0  0  0
   16.3311  -24.9888   -5.7107 H   0  0  0  0  0  0  0  0  0  0  0  0
   12.3059  -23.4770   -7.1593 H   0  0  0  0  0  0  0  0  0  0  0  0
   12.3713  -20.3850   -9.2897 H   0  0  0  0  0  0  0  0  0  0  0  0
   11.9599  -24.8551   -7.1522 H   0  0  0  0  0  0  0  0  0  0  0  0
   13.0551  -25.8459   -4.5475 H   0  0  0  0  0  0  0  0  0  0  0  0
   10.6922  -25.5681   -6.7851 H   0  0  0  0  0  0  0  0  0  0  0  0
   12.0981  -26.3887   -4.2718 H   0  0  0  0  0  0  0  0  0  0  0  0
   10.8470  -27.7460   -4.3569 H   0  0  0  0  0  0  0  0  0  0  0  0
    9.2600  -25.7315   -5.9138 H   0  0  0  0  0  0  0  0  0  0  0  0
    7.5200  -28.1690   -4.4033 H   0  0  0  0  0  0  0  0  0  0  0  0
    9.5794  -28.4554   -3.9830 H   0  0  0  0  0  0  0  0  0  0  0  0
    7.9940  -26.4523   -5.5558 H   0  0  0  0  0  0  0  0  0  0  0  0
   16.6416  -24.8033   -5.8071 H   0  0  0  0  0  0  0  0  0  0  0  0
   13.7522  -26.6040   -4.8541 H   0  0  0  0  0  0  0  0  0  0  0  0
   16.7224  -26.2256   -4.8175 H   0  0  0  0  0  0  0  0  0  0  0  0
   16.6404  -27.8935   -4.5820 H   0  0  0  0  0  0  0  0  0  0  0  0
   13.9279  -27.1011   -3.5916 H   0  0  0  0  0  0  0  0  0  0  0  0
   15.4717  -30.0649   -3.9750 H   0  0  0  0  0  0  0  0  0  0  0  0
   12.2702  -28.9073   -1.6433 H   0  0  0  0  0  0  0  0  0  0  0  0
   13.4788  -28.9456   -3.2210 H   0  0  0  0  0  0  0  0  0  0  0  0
   13.5005  -28.6999   -0.2815 H   0  0  0  0  0  0  0  0  0  0  0  0
   18.2414  -28.4565   -1.7247 H   0  0  0  0  0  0  0  0  0  0  0  0
   17.0323  -28.4146   -0.1474 H   0  0  0  0  0  0  0  0  0  0  0  0
   17.3598  -28.6312   -2.9814 H   0  0  0  0  0  0  0  0  0  0  0  0
   13.6874  -28.6826   -0.3406 H   0  0  0  0  0  0  0  0  0  0  0  0
   18.0669  -28.4102   -0.8973 H   0  0  0  0  0  0  0  0  0  0  0  0
   16.5844  -28.6007   -1.8722 H   0  0  0  0  0  0  0  0  0  0  0  0
   18.8119  -28.1432    1.6183 H   0  0  0  0  0  0  0  0  0  0  0  0
   18.5807  -28.3212   -0.2879 H   0  0  0  0  0  0  0  0  0  0  0  0
   16.8909  -28.1091    3.6813 H   0  0  0  0  0  0  0  0  0  0  0  0
   18.4288  -28.0952    2.5181 H   0  0  0  0  0  0  0  0  0  0  0  0
   14.1524  -28.3612    3.0617 H   0  0  0  0  0  0  0  0  0  0  0  0
   15.9215  -28.1694    3.8046 H   0  0  0  0  0  0  0  0  0  0  0  0
   13.2446  -28.6406    0.5382 H   0  0  0  0  0  0  0  0  0  0  0  0
   13.5661  -28.4696    2.2851 H   0  0  0  0  0  0  0  0  0  0  0  0
   17.7433  -26.6300   -3.7822 H   0  0  0  0  0  0  0  0  0  0  0  0
   17.5329  -25.6193   -5.6353 H   0  0  0  0  0  0  0  0  0  0  0  0
   19.4051  -25.9536   -3.3442 H   0  0  0  0  0  0  0  0  0  0  0  0
  1  2  2  3
  2  3  1  0
  3  4  1  0
  4  5  1  0
  5  6  1  0
  5  7  1  0
  7  8  1  0
  8  9  1  0
  9 10  1  0
  7 11  1  0
 11 12  1  0
 12 13  1  0
 13 14  1  0
 14 15  1  0
 14 16  1  0
 16 17  1  0
 17 18  1  0
 13 19  1  0
 19 20  1  0
 20 21  1  0
 21 22  1  0
 22 23  1  0
 23 24  1  0
 24 25  1  0
 23 26  1  0
 26 27  1  0
 27 28  1  0
 28 29  1  0
 29 30  1  0
 26 31  1  0
 31 32  1  0
 32 33  1  0
 33 34  1  0
 34 35  1  0
 35 36  1  0
 35 37  1  0
 35 38  1  0
 38 39  1  0
 39 40  1  0
 40 41  1  0
 41 42  1  0
 42 43  1  0
  3 44  1  0
 44 45  1  0
 20 11  1  0
 43 38  1  0
 22 20  1  0
  1 46  1  0
  1 47  1  0
  2 48  1  0
  3 49  1  0
  4 50  1  0
  4 51  1  0
  5 52  1  0
  6 53  1  0
  6 54  1  0
  6 55  1  0
  7 56  1  0
  8 57  1  0
 10 58  1  0
 10 59  1  0
 10 60  1  0
 11 61  1  0
 13 62  1  0
 14 63  1  0
 15 64  1  0
 16 65  1  0
 16 66  1  0
 18 67  1  0
 18 68  1  0
 18 69  1  0
 21 70  1  0
 21 71  1  0
 23 72  1  0
 25 73  1  0
 27 74  1  0
 27 75  1  0
 28 76  1  0
 28 77  1  0
 29 78  1  0
 29 79  1  0
 30 80  1  0
 30 81  1  0
 30 82  1  0
 31 83  1  0
 32 84  1  0
 32 85  1  0
 33 86  1  0
 33 87  1  0
 34 88  1  0
 36 89  1  0
 36 90  1  0
 36 91  1  0
 37 92  1  0
 37 93  1  0
 37 94  1  0
 38 95  1  0
 39 96  1  0
 39 97  1  0
 40 98  1  0
 40 99  1  0
 41100  1  0
 41101  1  0
 42102  1  0
 42103  1  0
 43104  1  0
 43105  1  0
 45106  1  0
 45107  1  0
 45108  1  0
M  RAD  2  12   2  19   2
M  END
