
     RDKit          2D

 31 36  0  0  0  0  0  0  0  0999 V2000
   -2.0333   26.9737    6.2705 N   0  0  0  0  0  0  0  0  0  0  0  0
   -3.3532   26.4667    5.7696 C   0  0  0  0  0  0  0  0  0  0  0  0
   -3.4013   25.2863    4.8454 N   0  0  0  0  0  0  0  0  0  0  0  0
   -2.1296   24.6129    4.4220 C   0  0  0  0  0  0  0  0  0  0  0  0
   -2.6867   23.5365    3.5382 C   0  0  0  0  0  0  0  0  0  0  0  0
   -1.7618   22.5705    2.8589 C   0  0  0  0  0  0  0  0  0  0  0  0
   -0.2799   22.6808    3.0634 N   0  0  0  0  0  0  0  0  0  0  0  0
   -1.2047   23.6469    3.7427 C   0  0  0  0  0  0  0  0  0  0  0  0
   -4.6248   27.1401    6.1930 N   0  0  0  0  0  0  0  0  0  0  0  0
   -4.5766   28.3206    7.1173 C   0  0  0  0  0  0  0  0  0  0  0  0
   -3.1189   28.5333    7.3997 C   0  0  0  0  0  0  0  0  0  0  0  0
   -3.4596   29.6984    8.2809 C   0  0  0  0  0  0  0  0  0  0  0  0
   -4.9173   29.4857    7.9985 C   0  0  0  0  0  0  0  0  0  0  0  0
   -5.9413   30.3883    8.6204 C   0  0  0  0  0  0  0  0  0  0  0  0
   -7.0334   29.6215    7.9352 N   0  0  0  0  0  0  0  0  0  0  0  0
   -6.0094   28.7189    7.3133 C   0  0  0  0  0  0  0  0  0  0  0  0
   -0.7615   26.3003    5.8471 H   0  0  0  0  0  0  0  0  0  0  0  0
   -4.7212   24.7793    4.3445 H   0  0  0  0  0  0  0  0  0  0  0  0
   -1.1309   25.4554    5.1587 H   0  0  0  0  0  0  0  0  0  0  0  0
   -4.1685   23.4261    3.3336 H   0  0  0  0  0  0  0  0  0  0  0  0
   -2.3188   21.4941    1.9751 H   0  0  0  0  0  0  0  0  0  0  0  0
    1.1097   22.1869    2.7894 H   0  0  0  0  0  0  0  0  0  0  0  0
   -5.9447   26.6332    5.6922 H   0  0  0  0  0  0  0  0  0  0  0  0
   -1.6611   28.7461    7.6821 H   0  0  0  0  0  0  0  0  0  0  0  0
   -2.5654   27.6593    6.7625 H   0  0  0  0  0  0  0  0  0  0  0  0
   -3.8004   30.8635    9.1621 H   0  0  0  0  0  0  0  0  0  0  0  0
   -2.0018   29.9111    8.5633 H   0  0  0  0  0  0  0  0  0  0  0  0
   -6.9652   31.2909    9.2423 H   0  0  0  0  0  0  0  0  0  0  0  0
   -4.8492   31.1551    9.3056 H   0  0  0  0  0  0  0  0  0  0  0  0
   -8.5297   29.7176    7.8905 H   0  0  0  0  0  0  0  0  0  0  0  0
   -6.7993   27.7447    6.4905 H   0  0  0  0  0  0  0  0  0  0  0  0
  1  2  2  3
  2  3  1  0
  3  4  1  0
  4  5  1  0
  5  6  1  0
  6  7  1  0
  7  8  1  0
  2  9  1  0
  9 10  1  0
 10 11  1  0
 11 12  1  0
 12 13  1  0
 13 14  1  0
 14 15  1  0
 15 16  1  0
  8  4  1  0
 13 10  1  0
  8  5  1  0
 16 10  1  0
  8  6  1  0
 16 13  1  0
  1 17  1  0
  3 18  1  0
  4 19  1  0
  5 20  1  0
  6 21  1  0
  7 22  1  0
  9 23  1  0
 11 24  1  0
 11 25  1  0
 12 26  1  0
 12 27  1  0
 14 28  1  0
 14 29  1  0
 15 30  1  0
 16 31  1  0
M  END
