
     RDKit          2D

 41 44  0  0  0  0  0  0  0  0999 V2000
   12.8921   26.3994    7.3016 O   0  0  0  0  0  0  0  0  0  0  0  0
   11.5636   27.0863    7.4160 C   0  0  0  0  0  0  0  0  0  0  0  0
   10.6270   26.7270    8.5312 O   0  0  0  0  0  0  0  0  0  0  0  0
   10.2351   27.7733    7.5304 C   0  0  0  0  0  0  0  0  0  0  0  0
    9.8432   28.8197    6.5296 C   0  0  0  0  0  0  0  0  0  0  0  0
    9.9221   29.7382    5.3463 F   0  0  0  0  0  0  0  0  0  0  0  0
    8.4872   29.1876    7.0549 C   0  0  0  0  0  0  0  0  0  0  0  0
    7.1312   29.5554    7.5804 C   0  0  0  0  0  0  0  0  0  0  0  0
    5.7753   29.9232    8.1059 C   0  0  0  0  0  0  0  0  0  0  0  0
    4.4193   30.2910    8.6315 C   0  0  0  0  0  0  0  0  0  0  0  0
    3.0634   30.6588    9.1569 C   0  0  0  0  0  0  0  0  0  0  0  0
    1.7075   31.0266    9.6824 N   0  0  0  0  0  0  0  0  0  0  0  0
    0.4914   30.2942    9.1979 C   0  0  0  0  0  0  0  0  0  0  0  0
   -0.7248   29.5619    8.7134 C   0  0  0  0  0  0  0  0  0  0  0  0
   -1.9409   28.8296    8.2288 C   0  0  0  0  0  0  0  0  0  0  0  0
   -3.1380   28.4826    7.3943 C   0  0  0  0  0  0  0  0  0  0  0  0
   -2.3086   29.6848    7.0527 C   0  0  0  0  0  0  0  0  0  0  0  0
   11.1717   28.1327    6.4152 C   0  0  0  0  0  0  0  0  0  0  0  0
   12.1083   28.4920    5.3000 O   0  0  0  0  0  0  0  0  0  0  0  0
   13.5366   25.8053    8.5189 H   0  0  0  0  0  0  0  0  0  0  0  0
    8.6472   28.1916    8.1652 H   0  0  0  0  0  0  0  0  0  0  0  0
    8.3272   30.1835    5.9448 H   0  0  0  0  0  0  0  0  0  0  0  0
    7.2908   28.5584    8.6897 H   0  0  0  0  0  0  0  0  0  0  0  0
    6.9718   30.5524    6.4712 H   0  0  0  0  0  0  0  0  0  0  0  0
    5.6162   30.9207    6.9971 H   0  0  0  0  0  0  0  0  0  0  0  0
    5.9345   28.9256    9.2148 H   0  0  0  0  0  0  0  0  0  0  0  0
    4.5770   29.2907    9.7381 H   0  0  0  0  0  0  0  0  0  0  0  0
    4.2618   31.2913    7.5248 H   0  0  0  0  0  0  0  0  0  0  0  0
    2.6155   30.9953    7.7656 H   0  0  0  0  0  0  0  0  0  0  0  0
    3.5114   30.3223   10.5483 H   0  0  0  0  0  0  0  0  0  0  0  0
    1.5677   32.1267   10.6925 H   0  0  0  0  0  0  0  0  0  0  0  0
    0.3365   31.2879    8.0850 H   0  0  0  0  0  0  0  0  0  0  0  0
    0.6463   29.3006   10.3108 H   0  0  0  0  0  0  0  0  0  0  0  0
   -0.5671   28.5657    9.8236 H   0  0  0  0  0  0  0  0  0  0  0  0
   -0.7321   30.5322    7.7748 H   0  0  0  0  0  0  0  0  0  0  0  0
   -1.9955   27.7200    9.2368 H   0  0  0  0  0  0  0  0  0  0  0  0
   -3.6084   27.2525    8.1124 H   0  0  0  0  0  0  0  0  0  0  0  0
   -4.1718   28.5628    6.3104 H   0  0  0  0  0  0  0  0  0  0  0  0
   -3.0543   30.1826    5.8502 H   0  0  0  0  0  0  0  0  0  0  0  0
   -1.3983   30.6797    6.9882 H   0  0  0  0  0  0  0  0  0  0  0  0
   13.4293   27.7925    5.1753 H   0  0  0  0  0  0  0  0  0  0  0  0
  1  2  1  0
  2  3  1  0
  3  4  1  0
  4  5  1  0
  5  6  1  0
  5  7  1  0
  7  8  1  0
  8  9  1  0
  9 10  1  0
 10 11  1  0
 11 12  1  0
 12 13  1  0
 13 14  1  0
 14 15  1  0
 15 16  1  0
 16 17  1  0
  5 18  1  0
 18 19  1  0
  4  2  1  0
 17 15  1  0
 18  2  1  0
 18  4  1  0
  1 20  1  0
  7 21  1  0
  7 22  1  0
  8 23  1  0
  8 24  1  0
  9 25  1  0
  9 26  1  0
 10 27  1  0
 10 28  1  0
 11 29  1  0
 11 30  1  0
 12 31  1  0
 13 32  1  0
 13 33  1  0
 14 34  1  0
 14 35  1  0
 15 36  1  0
 16 37  1  0
 16 38  1  0
 17 39  1  0
 17 40  1  0
 19 41  1  0
M  END
