
     RDKit          2D

 81 84  0  0  0  0  0  0  0  0999 V2000
   -3.2168   25.1175    5.1951 C   0  0  0  0  0  0  0  0  0  0  0  0
   -3.2681   26.3513    4.3435 C   0  0  0  0  0  0  0  0  0  0  0  0
   -4.5294   27.1601    4.2702 C   0  0  0  0  0  0  0  0  0  0  0  0
   -5.7905   27.9687    4.1967 C   0  0  0  0  0  0  0  0  0  0  0  0
   -7.0518   28.7775    4.1234 C   0  0  0  0  0  0  0  0  0  0  0  0
   -4.0586   27.9988    5.4211 O   0  0  0  0  0  0  0  0  0  0  0  0
   -2.7275   27.7226    6.0554 C   0  0  0  0  0  0  0  0  0  0  0  0
   -2.7177   28.7856    7.1137 C   0  0  0  0  0  0  0  0  0  0  0  0
   -2.2468   29.6244    8.2645 C   0  0  0  0  0  0  0  0  0  0  0  0
   -1.7759   30.4633    9.4154 C   0  0  0  0  0  0  0  0  0  0  0  0
   -1.3050   31.3022   10.5663 C   0  0  0  0  0  0  0  0  0  0  0  0
   -1.5537   27.8490    6.9806 C   0  0  0  0  0  0  0  0  0  0  0  0
   -0.6785   28.3624    8.0853 C   0  0  0  0  0  0  0  0  0  0  0  0
   -0.6936   26.7339    6.4639 C   0  0  0  0  0  0  0  0  0  0  0  0
    0.4803   26.8602    7.3891 C   0  0  0  0  0  0  0  0  0  0  0  0
    1.4417   27.2810    8.4609 B   0  0  0  0  0  0  0  0  0  0  0  0
    2.7915   26.8132    8.9183 C   0  0  0  0  0  0  0  0  0  0  0  0
    3.7389   25.7307    8.4933 C   0  0  0  0  0  0  0  0  0  0  0  0
    5.0401   25.0037    8.6613 C   0  0  0  0  0  0  0  0  0  0  0  0
    6.3414   24.2766    8.8291 O   0  0  0  0  0  0  0  0  0  0  0  0
    7.3028   24.6974    9.9009 C   0  0  0  0  0  0  0  0  0  0  0  0
    6.3553   25.7799   10.3258 C   0  0  0  0  0  0  0  0  0  0  0  0
    8.2502   23.6149    9.4759 C   0  0  0  0  0  0  0  0  0  0  0  0
    9.2107   24.0344   10.5491 C   0  0  0  0  0  0  0  0  0  0  0  0
   10.1583   22.9519   10.1241 C   0  0  0  0  0  0  0  0  0  0  0  0
    9.1977   22.5325    9.0511 C   0  0  0  0  0  0  0  0  0  0  0  0
    9.1886   21.4704    7.9918 C   0  0  0  0  0  0  0  0  0  0  0  0
    3.7290   24.6677    7.4351 C   0  0  0  0  0  0  0  0  0  0  0  0
    2.7677   24.2469    6.3633 C   0  0  0  0  0  0  0  0  0  0  0  0
    2.4088   23.3413    5.2227 C   0  0  0  0  0  0  0  0  0  0  0  0
    1.4179   24.7147    5.9059 C   0  0  0  0  0  0  0  0  0  0  0  0
    0.4704   25.7972    6.3308 C   0  0  0  0  0  0  0  0  0  0  0  0
   -1.9556   24.3088    5.2684 H   0  0  0  0  0  0  0  0  0  0  0  0
   -4.4266   24.6924    5.9733 H   0  0  0  0  0  0  0  0  0  0  0  0
   -2.4667   26.4264    3.9739 H   0  0  0  0  0  0  0  0  0  0  0  0
   -5.0002   26.3212    3.1191 H   0  0  0  0  0  0  0  0  0  0  0  0
   -5.3356   28.7850    5.3702 H   0  0  0  0  0  0  0  0  0  0  0  0
   -6.2455   27.1526    3.0234 H   0  0  0  0  0  0  0  0  0  0  0  0
   -8.3129   29.5862    4.0500 H   0  0  0  0  0  0  0  0  0  0  0  0
   -6.5840   29.6116    5.2791 H   0  0  0  0  0  0  0  0  0  0  0  0
   -7.5194   27.9434    2.9677 H   0  0  0  0  0  0  0  0  0  0  0  0
   -2.4604   27.0383    5.5604 H   0  0  0  0  0  0  0  0  0  0  0  0
   -4.0453   29.4309    6.8469 H   0  0  0  0  0  0  0  0  0  0  0  0
   -3.5001   30.4444    8.1796 H   0  0  0  0  0  0  0  0  0  0  0  0
   -1.5400   29.3095    8.4563 H   0  0  0  0  0  0  0  0  0  0  0  0
   -3.0414   31.2658    9.3483 H   0  0  0  0  0  0  0  0  0  0  0  0
   -0.5104   29.6607    9.4826 H   0  0  0  0  0  0  0  0  0  0  0  0
   -0.8341   32.1410   11.7172 H   0  0  0  0  0  0  0  0  0  0  0  0
   -2.5701   32.1052   10.4986 H   0  0  0  0  0  0  0  0  0  0  0  0
   -0.0399   30.4991   10.6341 H   0  0  0  0  0  0  0  0  0  0  0  0
    0.0648   28.9992    9.2220 H   0  0  0  0  0  0  0  0  0  0  0  0
   -1.0959   28.9657    8.3974 H   0  0  0  0  0  0  0  0  0  0  0  0
    0.5304   27.4760    8.0325 H   0  0  0  0  0  0  0  0  0  0  0  0
   -1.2941   25.9836    5.3122 H   0  0  0  0  0  0  0  0  0  0  0  0
   -0.0488   28.0216    8.1773 H   0  0  0  0  0  0  0  0  0  0  0  0
    1.0905   28.4303    9.3585 H   0  0  0  0  0  0  0  0  0  0  0  0
    3.8753   27.0792    9.9204 H   0  0  0  0  0  0  0  0  0  0  0  0
    2.4516   27.9610    9.8221 H   0  0  0  0  0  0  0  0  0  0  0  0
    4.5591   26.2980    9.6138 H   0  0  0  0  0  0  0  0  0  0  0  0
    5.2393   25.9935    9.7706 H   0  0  0  0  0  0  0  0  0  0  0  0
    4.8410   24.0138    7.5520 H   0  0  0  0  0  0  0  0  0  0  0  0
    8.1415   25.2470   11.0164 H   0  0  0  0  0  0  0  0  0  0  0  0
    5.4079   26.8623   10.7507 H   0  0  0  0  0  0  0  0  0  0  0  0
    7.3257   26.2138   11.3841 H   0  0  0  0  0  0  0  0  0  0  0  0
    5.1097   25.7628    9.4901 H   0  0  0  0  0  0  0  0  0  0  0  0
    7.2898   23.1955    8.4029 H   0  0  0  0  0  0  0  0  0  0  0  0
   10.1713   24.4539   11.6222 H   0  0  0  0  0  0  0  0  0  0  0  0
    8.3874   25.1599   11.1016 H   0  0  0  0  0  0  0  0  0  0  0  0
   11.1057   21.8695    9.6993 H   0  0  0  0  0  0  0  0  0  0  0  0
   11.1187   23.3714   11.1973 H   0  0  0  0  0  0  0  0  0  0  0  0
   10.3523   20.5334    7.8591 H   0  0  0  0  0  0  0  0  0  0  0  0
    8.0156   21.3454    7.0653 H   0  0  0  0  0  0  0  0  0  0  0  0
    4.5336   23.5372    6.8652 H   0  0  0  0  0  0  0  0  0  0  0  0
    5.0704   24.0912    7.7792 H   0  0  0  0  0  0  0  0  0  0  0  0
    3.8397   23.2335    6.0917 H   0  0  0  0  0  0  0  0  0  0  0  0
    2.0500   22.4356    4.0821 H   0  0  0  0  0  0  0  0  0  0  0  0
    3.7090   22.6128    5.3920 H   0  0  0  0  0  0  0  0  0  0  0  0
    1.0745   23.9539    4.9156 H   0  0  0  0  0  0  0  0  0  0  0  0
    0.2440   24.5884    4.9806 H   0  0  0  0  0  0  0  0  0  0  0  0
    1.2669   23.7066    4.8056 H   0  0  0  0  0  0  0  0  0  0  0  0
   -0.3591   25.2388    5.2128 H   0  0  0  0  0  0  0  0  0  0  0  0
  1  2  2  3
  2  3  1  0
  3  4  1  0
  4  5  1  0
  3  6  1  0
  6  7  1  0
  7  8  1  0
  8  9  1  0
  9 10  1  0
 10 11  1  0
  8 12  1  0
 12 13  1  0
 12 14  1  0
 14 15  1  0
 15 16  1  0
 16 17  1  0
 17 18  1  0
 18 19  1  0
 19 20  1  0
 20 21  1  0
 21 22  1  0
 21 23  1  0
 23 24  1  0
 24 25  1  0
 25 26  1  0
 26 27  2  3
 18 28  1  0
 28 29  1  0
 29 30  1  0
 29 31  1  0
 31 32  1  0
 12  7  1  0
 32 14  1  0
 32 15  1  0
 26 23  1  0
  1 33  1  0
  1 34  1  0
  2 35  1  0
  3 36  1  0
  4 37  1  0
  4 38  1  0
  5 39  1  0
  5 40  1  0
  5 41  1  0
  7 42  1  0
  8 43  1  0
  9 44  1  0
  9 45  1  0
 10 46  1  0
 10 47  1  0
 11 48  1  0
 11 49  1  0
 11 50  1  0
 13 51  1  0
 13 52  1  0
 13 53  1  0
 14 54  1  0
 15 55  1  0
 16 56  1  0
 17 57  1  0
 17 58  1  0
 18 59  1  0
 19 60  1  0
 19 61  1  0
 21 62  1  0
 22 63  1  0
 22 64  1  0
 22 65  1  0
 23 66  1  0
 24 67  1  0
 24 68  1  0
 25 69  1  0
 25 70  1  0
 27 71  1  0
 27 72  1  0
 28 73  1  0
 28 74  1  0
 29 75  1  0
 30 76  1  0
 30 77  1  0
 30 78  1  0
 31 79  1  0
 31 80  1  0
 32 81  1  0
M  END
