
     RDKit          2D

108113  0  0  0  0  0  0  0  0999 V2000
   19.3976  -19.4134   -8.3478 C   0  0  0  0  0  0  0  0  0  0  0  0
   18.3395  -20.1877   -7.6191 C   0  0  0  0  0  0  0  0  0  0  0  0
   18.3157  -20.1967   -6.1193 C   0  0  0  0  0  0  0  0  0  0  0  0
   18.4773  -20.4566   -4.6508 C   0  0  0  0  0  0  0  0  0  0  0  0
   17.6956  -19.4147   -3.9069 C   0  0  0  0  0  0  0  0  0  0  0  0
   17.5790  -19.2973   -2.4160 C   0  0  0  0  0  0  0  0  0  0  0  0
   17.4625  -19.1800   -0.9252 C   0  0  0  0  0  0  0  0  0  0  0  0
   17.3460  -19.0625    0.5656 C   0  0  0  0  0  0  0  0  0  0  0  0
   17.2294  -18.9452    2.0565 C   0  0  0  0  0  0  0  0  0  0  0  0
   18.1124  -20.1466    2.2201 N   0  0  0  0  0  0  0  0  0  0  0  0
   18.4524  -20.6461    3.5931 Sb  0  0  0  0  0  3  0  0  0  0  0  0
   19.3355  -21.8476    3.7567 C   0  0  0  0  0  0  0  0  0  0  0  0
   20.2186  -23.0490    3.9203 C   0  0  0  0  0  0  0  0  0  0  0  0
   20.0359  -22.9807    5.4076 C   0  0  0  0  0  0  0  0  0  0  0  0
   19.8531  -22.9124    6.8948 C   0  0  0  0  0  0  0  0  0  0  0  0
   19.6705  -22.8442    8.3821 O   0  0  0  0  0  0  0  0  0  0  0  0
   21.1017  -24.2504    4.0840 C   0  0  0  0  0  0  0  0  0  0  0  0
   21.7750  -25.1899    5.0399 C   0  0  0  0  0  0  0  0  0  0  0  0
   22.6657  -26.3968    5.0293 C   0  0  0  0  0  0  0  0  0  0  0  0
   23.3570  -27.3063    4.0572 C   0  0  0  0  0  0  0  0  0  0  0  0
   23.5254  -27.4928    2.5784 C   0  0  0  0  0  0  0  0  0  0  0  0
   23.0921  -26.8691    1.2848 C   0  0  0  0  0  0  0  0  0  0  0  0
   22.2599  -25.7270    0.7818 C   0  0  0  0  0  0  0  0  0  0  0  0
   21.7392  -24.9875   -0.4149 C   0  0  0  0  0  0  0  0  0  0  0  0
   21.4181  -24.6009    1.3047 C   0  0  0  0  0  0  0  0  0  0  0  0
   20.5547  -23.4212    0.9691 C   0  0  0  0  0  0  0  0  0  0  0  0
   20.9607  -24.0177    2.6088 C   0  0  0  0  0  0  0  0  0  0  0  0
   16.3464  -17.7438    1.8929 C   0  0  0  0  0  0  0  0  0  0  0  0
   16.4405  -17.8777    0.4018 N   0  0  0  0  0  0  0  0  0  0  0  0
   16.2522  -17.6098    3.3839 N   0  0  0  0  0  0  0  0  0  0  0  0
   15.9488  -16.2760    3.9995 C   0  0  0  0  0  0  0  0  0  0  0  0
   15.7813  -15.7681    5.4009 C   0  0  0  0  0  0  0  0  0  0  0  0
   15.5198  -14.3898    4.8701 C   0  0  0  0  0  0  0  0  0  0  0  0
   15.6873  -14.8977    3.4687 C   0  0  0  0  0  0  0  0  0  0  0  0
   15.4258  -13.5194    2.9378 C   0  0  0  0  0  0  0  0  0  0  0  0
   15.1643  -12.1411    2.4070 C   0  0  0  0  0  0  0  0  0  0  0  0
   14.9028  -10.7626    1.8762 C   0  0  0  0  0  0  0  0  0  0  0  0
   14.6412   -9.3843    1.3454 C   0  0  0  0  0  0  0  0  0  0  0  0
   17.0510  -18.5108   -4.9155 C   0  0  0  0  0  0  0  0  0  0  0  0
   17.4342  -18.9940   -6.2829 C   0  0  0  0  0  0  0  0  0  0  0  0
   16.7895  -18.0902   -7.2916 C   0  0  0  0  0  0  0  0  0  0  0  0
   16.0316  -17.0393   -8.0474 O   0  0  0  0  0  0  0  0  0  0  0  0
   16.0079  -17.0483   -6.5476 C   0  0  0  0  0  0  0  0  0  0  0  0
   16.1694  -17.3083   -5.0792 C   0  0  0  0  0  0  0  0  0  0  0  0
   19.4213  -19.4044   -9.8476 H   0  0  0  0  0  0  0  0  0  0  0  0
   20.4319  -18.6481   -7.5767 H   0  0  0  0  0  0  0  0  0  0  0  0
   17.4870  -20.8208   -8.6786 H   0  0  0  0  0  0  0  0  0  0  0  0
   19.2022  -21.3973   -6.2692 H   0  0  0  0  0  0  0  0  0  0  0  0
   18.8171  -20.9562   -3.2780 H   0  0  0  0  0  0  0  0  0  0  0  0
   19.3299  -21.6029   -5.1078 H   0  0  0  0  0  0  0  0  0  0  0  0
   18.4621  -20.4988   -2.2524 H   0  0  0  0  0  0  0  0  0  0  0  0
   16.6960  -18.0958   -2.5797 H   0  0  0  0  0  0  0  0  0  0  0  0
   16.5811  -17.9773   -1.0888 H   0  0  0  0  0  0  0  0  0  0  0  0
   18.3439  -20.3826   -0.7616 H   0  0  0  0  0  0  0  0  0  0  0  0
   18.2362  -20.2696    0.5463 H   0  0  0  0  0  0  0  0  0  0  0  0
   16.9058  -18.4580    0.2895 H   0  0  0  0  0  0  0  0  0  0  0  0
   17.1129  -18.8278    3.5474 H   0  0  0  0  0  0  0  0  0  0  0  0
   18.7376  -20.9630    1.1280 H   0  0  0  0  0  0  0  0  0  0  0  0
   17.9094  -19.9442    4.8023 H   0  0  0  0  0  0  0  0  0  0  0  0
   19.1104  -21.5859    5.2164 H   0  0  0  0  0  0  0  0  0  0  0  0
   19.4539  -21.9636    2.2659 H   0  0  0  0  0  0  0  0  0  0  0  0
   20.0726  -22.6821    2.4733 H   0  0  0  0  0  0  0  0  0  0  0  0
   18.6973  -22.3038    5.3964 H   0  0  0  0  0  0  0  0  0  0  0  0
   21.2784  -23.6177    5.9555 H   0  0  0  0  0  0  0  0  0  0  0  0
   20.7375  -24.1130    7.0585 H   0  0  0  0  0  0  0  0  0  0  0  0
   18.9689  -21.7119    6.7311 H   0  0  0  0  0  0  0  0  0  0  0  0
   20.3418  -23.8523    9.2671 H   0  0  0  0  0  0  0  0  0  0  0  0
   20.7360  -23.7938    5.4652 H   0  0  0  0  0  0  0  0  0  0  0  0
   21.1611  -24.3893    6.1498 H   0  0  0  0  0  0  0  0  0  0  0  0
   21.9108  -25.4157    6.5165 H   0  0  0  0  0  0  0  0  0  0  0  0
   22.5024  -26.2172    6.5096 H   0  0  0  0  0  0  0  0  0  0  0  0
   23.3357  -27.3320    5.9920 H   0  0  0  0  0  0  0  0  0  0  0  0
   23.7948  -27.9360    5.3463 H   0  0  0  0  0  0  0  0  0  0  0  0
   24.2433  -28.5023    3.8726 H   0  0  0  0  0  0  0  0  0  0  0  0
   24.4050  -28.6772    2.3076 H   0  0  0  0  0  0  0  0  0  0  0  0
   23.6753  -27.6269    0.1292 H   0  0  0  0  0  0  0  0  0  0  0  0
   22.8030  -26.4289   -0.4275 H   0  0  0  0  0  0  0  0  0  0  0  0
   22.4629  -25.9410   -1.3189 H   0  0  0  0  0  0  0  0  0  0  0  0
   20.9574  -23.9510    0.3366 H   0  0  0  0  0  0  0  0  0  0  0  0
   21.2185  -24.2481   -1.6115 H   0  0  0  0  0  0  0  0  0  0  0  0
   21.0638  -24.0823   -0.0574 H   0  0  0  0  0  0  0  0  0  0  0  0
   20.7751  -23.6757   -0.4927 H   0  0  0  0  0  0  0  0  0  0  0  0
   20.0394  -22.7608    2.2134 H   0  0  0  0  0  0  0  0  0  0  0  0
   19.6912  -22.2414    0.6335 H   0  0  0  0  0  0  0  0  0  0  0  0
   20.2184  -22.9891    1.8083 H   0  0  0  0  0  0  0  0  0  0  0  0
   20.0887  -22.8454    2.9479 H   0  0  0  0  0  0  0  0  0  0  0  0
   15.4633  -16.5423    1.7292 H   0  0  0  0  0  0  0  0  0  0  0  0
   16.2313  -16.6777   -0.4737 H   0  0  0  0  0  0  0  0  0  0  0  0
   16.6771  -18.7663   -0.7832 H   0  0  0  0  0  0  0  0  0  0  0  0
   15.6138  -15.2602    6.8023 H   0  0  0  0  0  0  0  0  0  0  0  0
   16.0428  -17.1465    5.9317 H   0  0  0  0  0  0  0  0  0  0  0  0
   15.2398  -12.9598    4.5140 H   0  0  0  0  0  0  0  0  0  0  0  0
   15.3523  -13.8819    6.2715 H   0  0  0  0  0  0  0  0  0  0  0  0
   15.8549  -15.4057    2.0672 H   0  0  0  0  0  0  0  0  0  0  0  0
   15.5930  -14.0274    1.5364 H   0  0  0  0  0  0  0  0  0  0  0  0
   15.2280  -12.8472    4.2641 H   0  0  0  0  0  0  0  0  0  0  0  0
   15.3440  -12.6463    1.0062 H   0  0  0  0  0  0  0  0  0  0  0  0
   14.9846  -11.6357    3.8078 H   0  0  0  0  0  0  0  0  0  0  0  0
   14.7165  -10.2587    3.2767 H   0  0  0  0  0  0  0  0  0  0  0  0
   15.0890  -11.2666    0.4758 H   0  0  0  0  0  0  0  0  0  0  0  0
   16.1115   -9.1928    1.1183 H   0  0  0  0  0  0  0  0  0  0  0  0
   13.1709   -9.5758    1.5725 H   0  0  0  0  0  0  0  0  0  0  0  0
   14.3797   -8.0059    0.8146 H   0  0  0  0  0  0  0  0  0  0  0  0
   16.6677  -18.0276   -3.5482 H   0  0  0  0  0  0  0  0  0  0  0  0
   17.7168  -19.3387   -7.7151 H   0  0  0  0  0  0  0  0  0  0  0  0
   17.2412  -18.6680   -8.6000 H   0  0  0  0  0  0  0  0  0  0  0  0
   15.1214  -15.8476   -6.3977 H   0  0  0  0  0  0  0  0  0  0  0  0
   15.5570  -16.5064   -3.9692 H   0  0  0  0  0  0  0  0  0  0  0  0
  1  2  2  0
  2  3  1  0
  3  4  1  0
  4  5  1  0
  5  6  1  1
  6  7  1  0
  7  8  1  0
  8  9  1  0
  9 10  1  0
 10 11  1  0
 11 12  1  0
 12 13  1  0
 13 14  1  0
 14 15  1  0
 15 16  1  0
 13 17  1  0
 17 18  1  0
 18 19  1  0
 19 20  1  0
 20 21  1  0
 21 22  2  0
 22 23  1  0
 23 24  1  0
 23 25  1  0
 25 26  1  0
 25 27  1  0
  9 28  1  0
 28 29  1  0
 28 30  1  0
 30 31  2  3
 31 32  1  0
 32 33  1  0
 33 34  1  0
 34 35  1  0
 35 36  1  0
 36 37  1  0
 37 38  1  0
  5 39  1  0
 39 40  1  0
 40 41  1  0
 41 42  1  0
 42 43  1  0
 43 44  1  0
 40  3  1  0
 43 41  1  0
 44  5  1  0
 27 17  1  0
 34 31  1  0
 44 39  1  0
  1 45  1  0
  1 46  1  0
  2 47  1  0
  3 48  1  6
  4 49  1  0
  4 50  1  0
  6 51  1  0
  6 52  1  0
  7 53  1  0
  7 54  1  0
  8 55  1  0
  8 56  1  0
  9 57  1  6
 10 58  1  0
 11 59  1  0
 12 60  1  0
 12 61  1  0
 13 62  1  6
 14 63  1  0
 14 64  1  0
 15 65  1  0
 15 66  1  0
 16 67  1  0
 17 68  1  1
 18 69  1  0
 18 70  1  0
 19 71  1  0
 19 72  1  0
 20 73  1  0
 20 74  1  0
 21 75  1  0
 22 76  1  0
 23 77  1  6
 24 78  1  0
 24 79  1  0
 24 80  1  0
 25 81  1  6
 26 82  1  0
 26 83  1  0
 26 84  1  0
 27 85  1  0
 27 86  1  0
 28 87  1  1
 29 88  1  0
 29 89  1  0
 32 90  1  0
 32 91  1  0
 33 92  1  0
 33 93  1  0
 34 94  1  1
 35 95  1  0
 35 96  1  0
 36 97  1  0
 36 98  1  0
 37 99  1  0
 37100  1  0
 38101  1  0
 38102  1  0
 38103  1  0
 39104  1  1
 40105  1  1
 41106  1  1
 43107  1  1
 44108  1  1
M  END
