
     RDKit          2D

 30 31  0  0  0  0  0  0  0  0999 V2000
    0.2565   27.8127    3.8715 C   0  0  0  0  0  0  0  0  0  0  0  0
   -0.5378   26.9663    4.8217 C   0  0  0  0  0  0  0  0  0  0  0  0
   -0.0143   26.6942    6.2008 C   0  0  0  0  0  0  0  0  0  0  0  0
    0.0893   27.0715    7.6489 C   0  0  0  0  0  0  0  0  0  0  0  0
    0.7759   26.4913    8.8496 C   0  0  0  0  0  0  0  0  0  0  0  0
    1.6434   25.2934    9.0997 C   0  0  0  0  0  0  0  0  0  0  0  0
    2.1836   24.1796    8.2527 C   0  0  0  0  0  0  0  0  0  0  0  0
    2.7071   23.9074    9.6318 C   0  0  0  0  0  0  0  0  0  0  0  0
    2.0800   23.8022    6.8046 O   0  0  0  0  0  0  0  0  0  0  0  0
    1.3934   24.3824    5.6038 C   0  0  0  0  0  0  0  0  0  0  0  0
    0.8699   24.6546    4.2247 C   0  0  0  0  0  0  0  0  0  0  0  0
    0.5259   25.5803    5.3537 C   0  0  0  0  0  0  0  0  0  0  0  0
   -0.2669   28.0849    2.4924 H   0  0  0  0  0  0  0  0  0  0  0  0
    1.5742   28.3870    4.3005 H   0  0  0  0  0  0  0  0  0  0  0  0
   -1.8265   26.4751    4.2320 H   0  0  0  0  0  0  0  0  0  0  0  0
   -0.8590   27.9329    6.1546 H   0  0  0  0  0  0  0  0  0  0  0  0
   -0.7842   28.2053    7.1998 H   0  0  0  0  0  0  0  0  0  0  0  0
   -0.3501   28.0938    8.6548 H   0  0  0  0  0  0  0  0  0  0  0  0
    0.1455   27.6750    9.5214 H   0  0  0  0  0  0  0  0  0  0  0  0
    0.9992   26.6983   10.3184 H   0  0  0  0  0  0  0  0  0  0  0  0
    1.6271   25.7797   10.3590 H   0  0  0  0  0  0  0  0  0  0  0  0
    2.0133   25.0215    9.8572 H   0  0  0  0  0  0  0  0  0  0  0  0
    2.9947   22.9249    8.1194 H   0  0  0  0  0  0  0  0  0  0  0  0
    3.2305   23.6352   11.0108 H   0  0  0  0  0  0  0  0  0  0  0  0
    3.1687   22.5507    9.1888 H   0  0  0  0  0  0  0  0  0  0  0  0
    2.4974   24.6055    9.9548 H   0  0  0  0  0  0  0  0  0  0  0  0
    2.0185   23.2024    4.9207 H   0  0  0  0  0  0  0  0  0  0  0  0
    1.4679   23.4944    3.4855 H   0  0  0  0  0  0  0  0  0  0  0  0
    0.1388   25.3297    3.1023 H   0  0  0  0  0  0  0  0  0  0  0  0
   -0.1654   26.1701    4.1603 H   0  0  0  0  0  0  0  0  0  0  0  0
  1  2  2  3
  2  3  1  0
  3  4  1  0
  4  5  1  0
  5  6  1  0
  6  7  1  0
  7  8  1  0
  7  9  1  0
  9 10  1  0
 10 11  1  0
 11 12  1  0
 12  3  1  0
 12 10  1  0
  1 13  1  0
  1 14  1  0
  2 15  1  0
  3 16  1  0
  4 17  1  0
  4 18  1  0
  5 19  1  0
  5 20  1  0
  6 21  1  0
  6 22  1  0
  7 23  1  0
  8 24  1  0
  8 25  1  0
  8 26  1  0
 10 27  1  0
 11 28  1  0
 11 29  1  0
 12 30  1  0
M  END
