
     RDKit          2D

105112  0  0  0  0  0  0  0  0999 V2000
  -12.4823   28.5679   -0.8460 C   0  0  0  0  0  0  0  0  0  0  0  0
  -11.5263   27.4229   -0.6868 C   0  0  0  0  0  0  0  0  0  0  0  0
  -11.9055   26.2408    0.1551 C   0  0  0  0  0  0  0  0  0  0  0  0
  -12.2847   25.0586    0.9969 C   0  0  0  0  0  0  0  0  0  0  0  0
  -10.1912   27.4602   -1.3695 C   0  0  0  0  0  0  0  0  0  0  0  0
   -8.8561   27.4974   -2.0522 C   0  0  0  0  0  0  0  0  0  0  0  0
   -8.8285   26.1793   -1.3368 C   0  0  0  0  0  0  0  0  0  0  0  0
   -7.7358   25.1521   -1.3106 C   0  0  0  0  0  0  0  0  0  0  0  0
   -7.1141   23.8505   -0.8990 C   0  0  0  0  0  0  0  0  0  0  0  0
   -6.4923   22.5489   -0.4875 C   0  0  0  0  0  0  0  0  0  0  0  0
   -5.8705   21.2474   -0.0760 C   0  0  0  0  0  0  0  0  0  0  0  0
   -5.2488   19.9458    0.3356 C   0  0  0  0  0  0  0  0  0  0  0  0
   -4.6271   18.6443    0.7472 C   0  0  0  0  0  0  0  0  0  0  0  0
       nan       nan       nan C   0  0  0  0  0  0  0  0  0  0  0  0
       nan       nan       nan C   0  0  0  0  0  0  0  0  0  0  0  0
       nan       nan       nan C   0  0  0  0  0  0  0  0  0  0  0  0
       nan       nan       nan C   0  0  0  0  0  0  0  0  0  0  0  0
       nan       nan       nan C   0  0  0  0  0  0  0  0  0  0  0  0
       nan       nan       nan O   0  0  0  0  0  0  0  0  0  0  0  0
       nan       nan       nan C   0  0  0  0  0  0  0  0  0  0  0  0
       nan       nan       nan C   0  0  0  0  0  0  0  0  0  0  0  0
       nan       nan       nan C   0  0  0  0  0  0  0  0  0  0  0  0
       nan       nan       nan C   0  0  0  0  0  0  0  0  0  0  0  0
   -7.7209   22.2125    0.3046 C   0  0  0  0  0  0  0  0  0  0  0  0
   -8.5481   23.4342    0.0337 C   0  0  0  0  0  0  0  0  0  0  0  0
   -9.7942   24.2539    0.1924 C   0  0  0  0  0  0  0  0  0  0  0  0
  -10.7380   23.4959    1.0782 C   0  0  0  0  0  0  0  0  0  0  0  0
  -10.0753   22.2077    1.4669 C   0  0  0  0  0  0  0  0  0  0  0  0
   -8.7217   22.1695    0.8214 C   0  0  0  0  0  0  0  0  0  0  0  0
   -8.4647   20.8274    1.4399 C   0  0  0  0  0  0  0  0  0  0  0  0
   -7.0907   20.4431    0.9765 C   0  0  0  0  0  0  0  0  0  0  0  0
   -6.4921   19.1368    1.4068 C   0  0  0  0  0  0  0  0  0  0  0  0
   -7.8660   19.5211    1.8703 C   0  0  0  0  0  0  0  0  0  0  0  0
   -7.4017   19.9164    1.4221 C   0  0  0  0  0  0  0  0  0  0  0  0
   -9.7905   20.7484    2.1369 C   0  0  0  0  0  0  0  0  0  0  0  0
   -9.8181   20.8655    2.0854 C   0  0  0  0  0  0  0  0  0  0  0  0
   -6.4006   25.1893   -1.9933 C   0  0  0  0  0  0  0  0  0  0  0  0
   -5.8286   26.2630   -2.8708 C   0  0  0  0  0  0  0  0  0  0  0  0
   -4.4528   26.0003   -3.4077 C   0  0  0  0  0  0  0  0  0  0  0  0
   -6.4503   27.5645   -3.2823 C   0  0  0  0  0  0  0  0  0  0  0  0
   -6.4779   28.8826   -3.9976 C   0  0  0  0  0  0  0  0  0  0  0  0
   -7.7977   28.1139   -2.9180 N   0  0  0  0  0  0  0  0  0  0  0  0
  -13.8174   28.5306   -0.1633 H   0  0  0  0  0  0  0  0  0  0  0  0
  -12.1032   29.7500   -1.6878 H   0  0  0  0  0  0  0  0  0  0  0  0
  -13.2308   26.8775    0.4523 H   0  0  0  0  0  0  0  0  0  0  0  0
  -10.6364   25.4647   -0.0373 H   0  0  0  0  0  0  0  0  0  0  0  0
  -12.6639   23.8765    1.8388 H   0  0  0  0  0  0  0  0  0  0  0  0
  -13.5966   25.7099    1.3205 H   0  0  0  0  0  0  0  0  0  0  0  0
  -11.0288   24.2681    0.7784 H   0  0  0  0  0  0  0  0  0  0  0  0
  -10.0248   26.1207   -0.7153 H   0  0  0  0  0  0  0  0  0  0  0  0
  -10.5229   28.8052   -1.9447 H   0  0  0  0  0  0  0  0  0  0  0  0
   -9.4778   28.7990   -2.4637 H   0  0  0  0  0  0  0  0  0  0  0  0
   -9.4007   25.1057   -0.4593 H   0  0  0  0  0  0  0  0  0  0  0  0
  -10.1999   26.5750   -0.8756 H   0  0  0  0  0  0  0  0  0  0  0  0
   -8.7942   24.5356   -0.4447 H   0  0  0  0  0  0  0  0  0  0  0  0
   -8.4561   23.8395   -0.2292 H   0  0  0  0  0  0  0  0  0  0  0  0
   -5.8192   24.0253   -1.6359 H   0  0  0  0  0  0  0  0  0  0  0  0
   -5.2637   22.8855   -1.2795 H   0  0  0  0  0  0  0  0  0  0  0  0
   -4.7291   21.7376   -0.9165 H   0  0  0  0  0  0  0  0  0  0  0  0
   -6.7927   20.4690    0.8151 H   0  0  0  0  0  0  0  0  0  0  0  0
   -6.0946   19.4875    1.4866 H   0  0  0  0  0  0  0  0  0  0  0  0
   -4.0054   17.3427    1.1587 H   0  0  0  0  0  0  0  0  0  0  0  0
   -3.3852   18.7635   -0.0856 H   0  0  0  0  0  0  0  0  0  0  0  0
   -5.7174   18.2077    1.6803 H   0  0  0  0  0  0  0  0  0  0  0  0
       nan       nan       nan H   0  0  0  0  0  0  0  0  0  0  0  0
       nan       nan       nan H   0  0  0  0  0  0  0  0  0  0  0  0
       nan       nan       nan H   0  0  0  0  0  0  0  0  0  0  0  0
       nan       nan       nan H   0  0  0  0  0  0  0  0  0  0  0  0
       nan       nan       nan H   0  0  0  0  0  0  0  0  0  0  0  0
       nan       nan       nan H   0  0  0  0  0  0  0  0  0  0  0  0
       nan       nan       nan H   0  0  0  0  0  0  0  0  0  0  0  0
       nan       nan       nan H   0  0  0  0  0  0  0  0  0  0  0  0
       nan       nan       nan H   0  0  0  0  0  0  0  0  0  0  0  0
       nan       nan       nan H   0  0  0  0  0  0  0  0  0  0  0  0
       nan       nan       nan H   0  0  0  0  0  0  0  0  0  0  0  0
       nan       nan       nan H   0  0  0  0  0  0  0  0  0  0  0  0
       nan       nan       nan H   0  0  0  0  0  0  0  0  0  0  0  0
       nan       nan       nan H   0  0  0  0  0  0  0  0  0  0  0  0
       nan       nan       nan H   0  0  0  0  0  0  0  0  0  0  0  0
       nan       nan       nan H   0  0  0  0  0  0  0  0  0  0  0  0
       nan       nan       nan H   0  0  0  0  0  0  0  0  0  0  0  0
       nan       nan       nan H   0  0  0  0  0  0  0  0  0  0  0  0
       nan       nan       nan H   0  0  0  0  0  0  0  0  0  0  0  0
   -7.1628   20.8968    0.7601 H   0  0  0  0  0  0  0  0  0  0  0  0
   -9.0796   25.2258   -0.6992 H   0  0  0  0  0  0  0  0  0  0  0  0
  -10.9844   25.1632    0.2739 H   0  0  0  0  0  0  0  0  0  0  0  0
  -11.9518   24.3702    1.1907 H   0  0  0  0  0  0  0  0  0  0  0  0
  -11.8699   22.9849    1.9195 H   0  0  0  0  0  0  0  0  0  0  0  0
  -11.3718   22.0354    2.2012 H   0  0  0  0  0  0  0  0  0  0  0  0
  -10.0816   22.6644    1.2165 H   0  0  0  0  0  0  0  0  0  0  0  0
   -5.1151   18.8891    0.8660 H   0  0  0  0  0  0  0  0  0  0  0  0
   -6.5220   17.8319    2.1460 H   0  0  0  0  0  0  0  0  0  0  0  0
   -8.9304   22.1589    0.9301 H   0  0  0  0  0  0  0  0  0  0  0  0
  -11.1164   20.6695    2.8338 H   0  0  0  0  0  0  0  0  0  0  0  0
   -9.4164   19.4081    2.6967 H   0  0  0  0  0  0  0  0  0  0  0  0
  -10.6150   21.9714    1.8640 H   0  0  0  0  0  0  0  0  0  0  0  0
   -5.0533   24.6399   -2.3576 H   0  0  0  0  0  0  0  0  0  0  0  0
   -6.2056   23.8490   -1.3487 H   0  0  0  0  0  0  0  0  0  0  0  0
   -3.7888   27.0105   -4.2957 H   0  0  0  0  0  0  0  0  0  0  0  0
   -3.7411   24.7275   -3.0567 H   0  0  0  0  0  0  0  0  0  0  0  0
   -5.1152   27.6017   -3.9650 H   0  0  0  0  0  0  0  0  0  0  0  0
   -6.5054   30.2008   -4.7130 H   0  0  0  0  0  0  0  0  0  0  0  0
   -5.4742   28.3672   -4.9861 H   0  0  0  0  0  0  0  0  0  0  0  0
   -7.4774   29.5550   -3.1038 H   0  0  0  0  0  0  0  0  0  0  0  0
   -8.2909   29.4429   -3.4084 H   0  0  0  0  0  0  0  0  0  0  0  0
  1  2  2  3
  2  3  1  0
  3  4  1  0
  2  5  1  0
  5  6  1  0
  6  7  1  0
  7  8  1  0
  8  9  1  0
  9 10  1  0
 10 11  1  0
 11 12  1  0
 12 13  1  0
 12 14  1  0
 14 15  1  0
 15 16  1  0
 16 17  1  0
 17 18  1  0
 18 19  1  0
 19 20  1  0
 20 21  1  0
 21 22  1  0
 21 23  1  0
 10 24  1  0
 24 25  1  0
 25 26  1  0
 26 27  1  0
 27 28  1  0
 28 29  1  0
 29 30  1  0
 30 31  1  0
 31 32  1  0
 32 33  1  0
 33 34  1  0
 34 35  1  0
 30 36  1  0
  8 37  1  0
 37 38  1  0
 38 39  2  3
 38 40  1  0
 40 41  1  0
 40 42  1  0
 42  6  1  0
 36 24  1  0
 29 25  1  0
 33 30  1  0
 36 25  1  0
 36 28  1  0
 33 31  1  0
 34 31  1  0
  1 43  1  0
  1 44  1  0
  3 45  1  0
  3 46  1  0
  4 47  1  0
  4 48  1  0
  4 49  1  0
  5 50  1  0
  5 51  1  0
  6 52  1  0
  7 53  1  0
  7 54  1  0
  8 55  1  0
  9 56  1  0
  9 57  1  0
 10 58  1  0
 11 59  1  0
 11 60  1  0
 12 61  1  0
 13 62  1  0
 13 63  1  0
 13 64  1  0
 14 65  1  0
 14 66  1  0
 15 67  1  0
 15 68  1  0
 16 69  1  0
 16 70  1  0
 17 71  1  0
 17 72  1  0
 18 73  1  0
 18 74  1  0
 20 75  1  0
 20 76  1  0
 21 77  1  0
 22 78  1  0
 22 79  1  0
 22 80  1  0
 23 81  1  0
 23 82  1  0
 23 83  1  0
 24 84  1  0
 26 85  1  0
 26 86  1  0
 27 87  1  0
 27 88  1  0
 28 89  1  0
 29 90  1  0
 32 91  1  0
 32 92  1  0
 34 93  1  0
 35 94  1  0
 35 95  1  0
 35 96  1  0
 37 97  1  0
 37 98  1  0
 39 99  1  0
 39100  1  0
 40101  1  0
 41102  1  0
 41103  1  0
 41104  1  0
 42105  1  0
M  END
