
     RDKit          2D

 45 53  0  0  0  0  0  0  0  0999 V2000
   14.9676  -19.5033  -23.8070 C   0  0  0  0  0  0  0  0  0  0  0  0
   16.1859  -20.2985  -23.4417 C   0  0  0  0  0  0  0  0  0  0  0  0
   16.5944  -19.5869  -22.1861 C   0  0  0  0  0  0  0  0  0  0  0  0
   15.6111  -18.4805  -21.9429 C   0  0  0  0  0  0  0  0  0  0  0  0
   15.5817  -17.4852  -20.8211 C   0  0  0  0  0  0  0  0  0  0  0  0
   14.7892  -16.3196  -20.3080 O   0  0  0  0  0  0  0  0  0  0  0  0
   15.7359  -16.1848  -19.1522 O   0  0  0  0  0  0  0  0  0  0  0  0
   16.5284  -17.3504  -19.6654 C   0  0  0  0  0  0  0  0  0  0  0  0
   17.7382  -18.1775  -19.3460 C   0  0  0  0  0  0  0  0  0  0  0  0
   18.9344  -19.0452  -19.0881 C   0  0  0  0  0  0  0  0  0  0  0  0
   19.6539  -20.2175  -19.6861 C   0  0  0  0  0  0  0  0  0  0  0  0
   20.6732  -21.3031  -19.8672 C   0  0  0  0  0  0  0  0  0  0  0  0
   19.5603  -21.1461  -20.8605 C   0  0  0  0  0  0  0  0  0  0  0  0
   18.6972  -21.3963  -22.0616 C   0  0  0  0  0  0  0  0  0  0  0  0
   18.8188  -22.4353  -23.1366 C   0  0  0  0  0  0  0  0  0  0  0  0
   18.3098  -23.0625  -24.4005 C   0  0  0  0  0  0  0  0  0  0  0  0
   17.0812  -22.5174  -25.0664 C   0  0  0  0  0  0  0  0  0  0  0  0
   18.0924  -22.4831  -23.9589 C   0  0  0  0  0  0  0  0  0  0  0  0
   17.5902  -21.8901  -23.8024 C   0  0  0  0  0  0  0  0  0  0  0  0
   17.4687  -20.8512  -22.7274 C   0  0  0  0  0  0  0  0  0  0  0  0
   18.3003  -19.3439  -20.1035 C   0  0  0  0  0  0  0  0  0  0  0  0
   19.2469  -19.2090  -18.9478 O   0  0  0  0  0  0  0  0  0  0  0  0
   17.7913  -19.9711  -21.3675 O   0  0  0  0  0  0  0  0  0  0  0  0
   13.7493  -18.7081  -24.1724 H   0  0  0  0  0  0  0  0  0  0  0  0
   14.7697  -20.3637  -25.0198 H   0  0  0  0  0  0  0  0  0  0  0  0
   15.0155  -18.5524  -22.6479 H   0  0  0  0  0  0  0  0  0  0  0  0
   16.2004  -21.2862  -24.5704 H   0  0  0  0  0  0  0  0  0  0  0  0
   14.7328  -18.7106  -23.1368 H   0  0  0  0  0  0  0  0  0  0  0  0
   14.3803  -17.7609  -22.4090 H   0  0  0  0  0  0  0  0  0  0  0  0
   14.3820  -17.0899  -21.6300 H   0  0  0  0  0  0  0  0  0  0  0  0
   17.1602  -16.8381  -18.4050 H   0  0  0  0  0  0  0  0  0  0  0  0
   18.3594  -17.6548  -18.0848 H   0  0  0  0  0  0  0  0  0  0  0  0
   19.0351  -18.1208  -17.9110 H   0  0  0  0  0  0  0  0  0  0  0  0
   20.1018  -19.3360  -18.1922 H   0  0  0  0  0  0  0  0  0  0  0  0
   21.5363  -21.0528  -18.6661 H   0  0  0  0  0  0  0  0  0  0  0  0
   21.3928  -22.4754  -20.4652 H   0  0  0  0  0  0  0  0  0  0  0  0
   20.3968  -22.3039  -21.3183 H   0  0  0  0  0  0  0  0  0  0  0  0
   19.8036  -22.4093  -22.0666 H   0  0  0  0  0  0  0  0  0  0  0  0
   20.0524  -23.1198  -22.6269 H   0  0  0  0  0  0  0  0  0  0  0  0
   18.9017  -24.2319  -25.1300 H   0  0  0  0  0  0  0  0  0  0  0  0
   16.0780  -22.5647  -26.1805 H   0  0  0  0  0  0  0  0  0  0  0  0
   18.9368  -23.6392  -24.4064 H   0  0  0  0  0  0  0  0  0  0  0  0
   19.2774  -22.8270  -23.1060 H   0  0  0  0  0  0  0  0  0  0  0  0
   19.0737  -20.5119  -20.6397 H   0  0  0  0  0  0  0  0  0  0  0  0
   20.4066  -20.1510  -18.8144 H   0  0  0  0  0  0  0  0  0  0  0  0
  1  2  1  0
  2  3  1  0
  3  4  1  0
  4  5  1  0
  5  6  1  0
  6  7  1  0
  7  8  1  0
  8  9  1  0
  9 10  1  0
 10 11  1  0
 11 12  1  0
 12 13  1  0
 13 14  1  0
 14 15  1  0
 15 16  1  0
 16 17  1  0
 17 18  1  0
 17 19  1  0
 19 20  1  0
  9 21  1  0
 21 22  1  0
 21 23  1  0
 20  2  1  0
 20  3  1  0
 23  3  1  0
  8  5  1  0
 13 11  1  0
 20 14  1  0
 18 11  1  0
 19 15  1  0
 19 16  1  0
  1 24  1  0
  1 25  1  0
  1 26  1  0
  2 27  1  0
  4 28  1  0
  4 29  1  0
  5 30  1  0
  8 31  1  0
  9 32  1  0
 10 33  1  0
 10 34  1  0
 12 35  1  0
 12 36  1  0
 13 37  1  0
 14 38  1  0
 15 39  1  0
 16 40  1  0
 17 41  1  0
 18 42  1  0
 18 43  1  0
 21 44  1  0
 22 45  1  0
M  END
