
     RDKit          2D

105113  0  0  0  0  0  0  0  0999 V2000
   22.3154  -20.5622   -9.4813 C   0  0  0  0  0  0  0  0  0  0  0  0
   23.1890  -19.6341   -8.6905 N   0  0  0  0  0  0  0  0  0  0  0  0
   22.6888  -19.0477   -7.4036 C   0  0  0  0  0  0  0  0  0  0  0  0
   22.1887  -18.4614   -6.1167 C   0  0  0  0  0  0  0  0  0  0  0  0
   21.6887  -17.8749   -4.8299 C   0  0  0  0  0  0  0  0  0  0  0  0
   22.1396  -16.9545   -3.7347 C   0  0  0  0  0  0  0  0  0  0  0  0
   21.8723  -16.2497   -2.4378 C   0  0  0  0  0  0  0  0  0  0  0  0
   20.9586  -15.9494   -1.2867 C   0  0  0  0  0  0  0  0  0  0  0  0
   22.2741  -15.7648   -1.9836 C   0  0  0  0  0  0  0  0  0  0  0  0
   23.3223  -14.8753   -1.3835 C   0  0  0  0  0  0  0  0  0  0  0  0
   23.0550  -14.1705   -0.0866 C   0  0  0  0  0  0  0  0  0  0  0  0
   22.1505  -15.0941   -0.8473 C   0  0  0  0  0  0  0  0  0  0  0  0
   17.2303  -17.6437   -1.1342 C   0  0  0  0  0  0  0  0  0  0  0  0
   16.7793  -18.5642   -2.2294 C   0  0  0  0  0  0  0  0  0  0  0  0
   17.0465  -19.2690   -3.5262 C   0  0  0  0  0  0  0  0  0  0  0  0
   17.9603  -19.5692   -4.6773 C   0  0  0  0  0  0  0  0  0  0  0  0
   16.6628  -20.3023   -4.8475 C   0  0  0  0  0  0  0  0  0  0  0  0
   17.9865  -20.3710   -5.9448 C   0  0  0  0  0  0  0  0  0  0  0  0
   16.5948  -20.8565   -5.6663 C   0  0  0  0  0  0  0  0  0  0  0  0
   16.6210  -21.6583   -6.9338 C   0  0  0  0  0  0  0  0  0  0  0  0
   16.6471  -22.4601   -8.2013 C   0  0  0  0  0  0  0  0  0  0  0  0
   15.2819  -23.0790   -8.1462 C   0  0  0  0  0  0  0  0  0  0  0  0
   14.8307  -23.9990   -9.2417 C   0  0  0  0  0  0  0  0  0  0  0  0
   13.4565  -24.3395   -8.7464 C   0  0  0  0  0  0  0  0  0  0  0  0
   12.2387  -24.3602   -7.8708 C   0  0  0  0  0  0  0  0  0  0  0  0
   13.4300  -23.5370   -7.4794 C   0  0  0  0  0  0  0  0  0  0  0  0
   16.1960  -23.3801   -9.2967 C   0  0  0  0  0  0  0  0  0  0  0  0
   18.0127  -21.1728   -7.2122 C   0  0  0  0  0  0  0  0  0  0  0  0
   19.4043  -20.6872   -7.4906 C   0  0  0  0  0  0  0  0  0  0  0  0
   20.7960  -20.2017   -7.7690 C   0  0  0  0  0  0  0  0  0  0  0  0
   21.0097  -19.3232   -6.5721 C   0  0  0  0  0  0  0  0  0  0  0  0
   22.1135  -20.0213   -8.4631 N   0  0  0  0  0  0  0  0  0  0  0  0
   21.0657  -20.9116   -9.0626 C   0  0  0  0  0  0  0  0  0  0  0  0
   21.7861  -21.3672  -10.2969 N   0  0  0  0  0  0  0  0  0  0  0  0
   21.1148  -22.3084  -11.2527 C   0  0  0  0  0  0  0  0  0  0  0  0
   20.4436  -23.2496  -12.2086 Mg  0  0  0  0  0  2  0  0  0  0  0  0
   19.7724  -24.1907  -13.1644 N   0  0  0  0  0  0  0  0  0  0  0  0
   19.2757  -19.3846   -5.3741 C   0  0  0  0  0  0  0  0  0  0  0  0
   18.6898  -20.3193   -6.3905 Cl  0  0  0  0  0  0  0  0  0  0  0  0
   20.6404  -18.7644   -5.4299 C   0  0  0  0  0  0  0  0  0  0  0  0
   18.2785  -16.7542   -0.5341 C   0  0  0  0  0  0  0  0  0  0  0  0
   19.6432  -16.1341   -0.5900 C   0  0  0  0  0  0  0  0  0  0  0  0
   20.6914  -15.2447    0.0101 C   0  0  0  0  0  0  0  0  0  0  0  0
   21.7396  -14.3552    0.6102 C   0  0  0  0  0  0  0  0  0  0  0  0
   22.0039  -21.0590  -10.0214 H   0  0  0  0  0  0  0  0  0  0  0  0
   23.4957  -20.5894  -10.4065 H   0  0  0  0  0  0  0  0  0  0  0  0
   21.2334  -20.4209   -8.4520 H   0  0  0  0  0  0  0  0  0  0  0  0
   24.5627  -19.2924   -9.1864 H   0  0  0  0  0  0  0  0  0  0  0  0
   23.9859  -18.3137   -7.2341 H   0  0  0  0  0  0  0  0  0  0  0  0
   21.5513  -19.9019   -7.8795 H   0  0  0  0  0  0  0  0  0  0  0  0
   20.8398  -19.1173   -6.1290 H   0  0  0  0  0  0  0  0  0  0  0  0
   23.4864  -17.7285   -5.9463 H   0  0  0  0  0  0  0  0  0  0  0  0
   23.0717  -17.4880   -5.2625 H   0  0  0  0  0  0  0  0  0  0  0  0
   23.3198  -16.9816   -4.6599 H   0  0  0  0  0  0  0  0  0  0  0  0
   23.4688  -16.2641   -3.6547 H   0  0  0  0  0  0  0  0  0  0  0  0
   23.2461  -15.9080   -2.9338 H   0  0  0  0  0  0  0  0  0  0  0  0
   23.1214  -15.4684   -2.1562 H   0  0  0  0  0  0  0  0  0  0  0  0
   23.5351  -15.6773   -2.7909 H   0  0  0  0  0  0  0  0  0  0  0  0
   21.9160  -16.6701   -3.1247 H   0  0  0  0  0  0  0  0  0  0  0  0
   24.6198  -14.1422   -1.2133 H   0  0  0  0  0  0  0  0  0  0  0  0
   24.0401  -15.3255   -2.6213 H   0  0  0  0  0  0  0  0  0  0  0  0
   24.1033  -13.2811    0.5135 H   0  0  0  0  0  0  0  0  0  0  0  0
   23.2933  -15.1671   -1.8160 H   0  0  0  0  0  0  0  0  0  0  0  0
   21.7937  -15.9992   -1.9890 H   0  0  0  0  0  0  0  0  0  0  0  0
   16.0764  -17.5839   -0.1777 H   0  0  0  0  0  0  0  0  0  0  0  0
   15.3920  -18.9807   -1.8397 H   0  0  0  0  0  0  0  0  0  0  0  0
   15.7324  -19.9811   -3.6514 H   0  0  0  0  0  0  0  0  0  0  0  0
   15.3140  -20.9585   -4.8596 H   0  0  0  0  0  0  0  0  0  0  0  0
   16.8340  -21.0487   -6.1373 H   0  0  0  0  0  0  0  0  0  0  0  0
   16.0082  -19.8097   -3.5909 H   0  0  0  0  0  0  0  0  0  0  0  0
   19.3646  -19.7913   -6.0666 H   0  0  0  0  0  0  0  0  0  0  0  0
   15.2167  -21.4362   -5.5446 H   0  0  0  0  0  0  0  0  0  0  0  0
   16.2327  -20.1961   -4.3692 H   0  0  0  0  0  0  0  0  0  0  0  0
   15.2293  -22.1439   -6.6554 H   0  0  0  0  0  0  0  0  0  0  0  0
   17.9849  -22.2287   -8.8391 H   0  0  0  0  0  0  0  0  0  0  0  0
   14.3678  -22.7779   -6.9956 H   0  0  0  0  0  0  0  0  0  0  0  0
   15.0263  -24.7355  -10.5338 H   0  0  0  0  0  0  0  0  0  0  0  0
   13.0056  -25.2603   -9.8414 H   0  0  0  0  0  0  0  0  0  0  0  0
   11.3649  -25.2881   -8.6617 H   0  0  0  0  0  0  0  0  0  0  0  0
   11.3244  -24.0586   -6.7206 H   0  0  0  0  0  0  0  0  0  0  0  0
   12.9293  -22.9495   -6.1933 H   0  0  0  0  0  0  0  0  0  0  0  0
   14.7523  -22.8364   -7.3763 H   0  0  0  0  0  0  0  0  0  0  0  0
   17.1101  -23.6812  -10.4473 H   0  0  0  0  0  0  0  0  0  0  0  0
   18.2083  -21.9094   -8.5042 H   0  0  0  0  0  0  0  0  0  0  0  0
   19.2614  -21.5437   -8.7137 H   0  0  0  0  0  0  0  0  0  0  0  0
   19.5473  -19.8308   -6.2675 H   0  0  0  0  0  0  0  0  0  0  0  0
   21.5499  -18.3890   -5.5303 H   0  0  0  0  0  0  0  0  0  0  0  0
   22.2925  -19.2077   -7.3409 H   0  0  0  0  0  0  0  0  0  0  0  0
   19.6705  -19.5517   -5.9362 H   0  0  0  0  0  0  0  0  0  0  0  0
   23.5037  -19.5932   -8.8291 H   0  0  0  0  0  0  0  0  0  0  0  0
   19.8386  -21.7103   -9.3887 H   0  0  0  0  0  0  0  0  0  0  0  0
   23.1708  -20.9836  -10.7273 H   0  0  0  0  0  0  0  0  0  0  0  0
   22.3304  -22.2832  -12.1311 H   0  0  0  0  0  0  0  0  0  0  0  0
   19.8993  -22.3335  -10.3743 H   0  0  0  0  0  0  0  0  0  0  0  0
   18.3807  -24.6763  -12.8860 H   0  0  0  0  0  0  0  0  0  0  0  0
   20.4928  -24.6463  -14.3987 H   0  0  0  0  0  0  0  0  0  0  0  0
   19.9936  -19.8347   -6.6118 H   0  0  0  0  0  0  0  0  0  0  0  0
   20.0987  -19.6955   -6.4738 H   0  0  0  0  0  0  0  0  0  0  0  0
   21.6587  -18.9701   -6.5120 H   0  0  0  0  0  0  0  0  0  0  0  0
   18.3251  -15.9281    0.7170 H   0  0  0  0  0  0  0  0  0  0  0  0
   17.0613  -16.7763    0.3423 H   0  0  0  0  0  0  0  0  0  0  0  0
   19.1886  -15.5225    0.7021 H   0  0  0  0  0  0  0  0  0  0  0  0
   19.7777  -14.9444    1.1612 H   0  0  0  0  0  0  0  0  0  0  0  0
   20.6577  -14.2139    1.6395 H   0  0  0  0  0  0  0  0  0  0  0  0
   22.4121  -13.4167    1.5677 H   0  0  0  0  0  0  0  0  0  0  0  0
  1  2  1  0
  2  3  1  0
  3  4  1  0
  4  5  1  0
  5  6  1  0
  6  7  1  0
  7  8  1  0
  8  9  1  0
  9 10  1  0
 10 11  1  0
 11 12  1  0
 12 13  1  0
 13 14  1  0
 14 15  2  0
 15 16  1  0
 16 17  1  0
 16 18  1  0
 18 19  1  0
 19 20  1  0
 20 21  1  0
 21 22  1  0
 22 23  1  0
 23 24  1  0
 24 25  1  0
 25 26  1  0
 23 27  1  0
 20 28  1  0
 28 29  1  0
 29 30  1  0
 30 31  1  0
 30 32  1  0
 32 33  1  0
 33 34  1  0
 34 35  1  0
 35 36  1  0
 36 37  1  0
 16 38  1  0
 38 39  1  0
 38 40  1  0
 13 41  1  0
 41 42  1  0
 42 43  1  0
 43 44  1  0
 40  5  1  0
 42  8  1  0
 43  8  1  0
 44 11  1  0
 28 18  1  0
 33 30  1  0
 27 21  1  0
 27 22  1  0
 26 24  1  0
  1 45  1  0
  1 46  1  0
  1 47  1  0
  2 48  1  0
  3 49  1  0
  3 50  1  0
  4 51  1  0
  4 52  1  0
  5 53  1  0
  6 54  1  0
  6 55  1  0
  7 56  1  0
  7 57  1  0
  9 58  1  0
  9 59  1  0
 10 60  1  0
 10 61  1  0
 11 62  1  0
 12 63  1  0
 12 64  1  0
 13 65  1  0
 14 66  1  0
 15 67  1  0
 17 68  1  0
 17 69  1  0
 17 70  1  0
 18 71  1  0
 19 72  1  0
 19 73  1  0
 20 74  1  0
 21 75  1  0
 22 76  1  0
 23 77  1  0
 24 78  1  0
 25 79  1  0
 25 80  1  0
 26 81  1  0
 26 82  1  0
 27 83  1  0
 28 84  1  0
 29 85  1  0
 29 86  1  0
 31 87  1  0
 31 88  1  0
 31 89  1  0
 32 90  1  0
 33 91  1  0
 34 92  1  0
 35 93  1  0
 35 94  1  0
 37 95  1  0
 37 96  1  0
 38 97  1  0
 40 98  1  0
 40 99  1  0
 41100  1  0
 41101  1  0
 42102  1  0
 43103  1  0
 44104  1  0
 44105  1  0
M  END
