
     RDKit          2D

 23 26  0  0  0  0  0  0  0  0999 V2000
   17.9584  -19.8023  -13.3820 N   0  0  0  0  0  0  0  0  0  0  0  0
   17.3171  -20.2678  -12.1085 C   0  0  0  0  0  0  0  0  0  0  0  0
   16.6757  -20.7334  -10.8349 N   0  0  0  0  0  0  0  0  0  0  0  0
   16.5826  -22.2000  -10.5345 C   0  0  0  0  0  0  0  0  0  0  0  0
   17.1308  -23.2011  -11.5077 O   0  0  0  0  0  0  0  0  0  0  0  0
   15.9413  -22.6655   -9.2610 N   0  0  0  0  0  0  0  0  0  0  0  0
   15.5173  -23.7810   -8.3523 C   0  0  0  0  0  0  0  0  0  0  0  0
   14.8305  -23.4718   -7.0550 C   0  0  0  0  0  0  0  0  0  0  0  0
   14.1891  -23.9373   -5.7815 C   0  0  0  0  0  0  0  0  0  0  0  0
   13.9264  -22.5125   -5.3930 C   0  0  0  0  0  0  0  0  0  0  0  0
   14.5677  -22.0470   -6.6666 C   0  0  0  0  0  0  0  0  0  0  0  0
   15.2545  -22.3562   -7.9638 C   0  0  0  0  0  0  0  0  0  0  0  0
   18.5066  -20.8035  -14.3553 H   0  0  0  0  0  0  0  0  0  0  0  0
   18.0515  -18.3356  -13.6824 H   0  0  0  0  0  0  0  0  0  0  0  0
   17.9309  -21.6237  -12.2950 H   0  0  0  0  0  0  0  0  0  0  0  0
   16.7032  -18.9120  -11.9220 H   0  0  0  0  0  0  0  0  0  0  0  0
   16.1275  -19.7321   -9.8617 H   0  0  0  0  0  0  0  0  0  0  0  0
   15.7800  -25.2058   -8.7407 H   0  0  0  0  0  0  0  0  0  0  0  0
   13.5478  -24.4028   -4.5079 H   0  0  0  0  0  0  0  0  0  0  0  0
   14.4519  -25.3621   -6.1699 H   0  0  0  0  0  0  0  0  0  0  0  0
   13.6636  -21.0877   -5.0045 H   0  0  0  0  0  0  0  0  0  0  0  0
   13.2850  -22.9780   -4.1194 H   0  0  0  0  0  0  0  0  0  0  0  0
   14.4799  -20.5502   -6.6210 H   0  0  0  0  0  0  0  0  0  0  0  0
  1  2  1  0
  2  3  1  0
  3  4  1  0
  4  5  2  0
  4  6  1  0
  6  7  1  0
  7  8  1  0
  8  9  1  0
  9 10  1  0
 10 11  1  0
 11 12  1  0
 12  6  1  0
 12  7  1  0
 11  8  1  0
 12  8  1  0
  1 13  1  0
  1 14  1  0
  2 15  1  0
  2 16  1  0
  3 17  1  0
  7 18  1  0
  9 19  1  0
  9 20  1  0
 10 21  1  0
 10 22  1  0
 11 23  1  0
M  END
