
     RDKit          2D

 10  9  0  0  0  0  0  0  0  0999 V2000
   14.8841  -19.0036   -6.3725 O   0  0  0  0  0  0  0  0  0  0  0  0
   15.4597  -17.9045   -5.5295 P   0  0  0  0  0  0  0  0  0  0  0  0
   14.8118  -17.5412   -4.2263 O   0  0  0  0  0  0  0  0  0  0  0  0
   13.7372  -16.4954   -4.1888 O   0  0  0  0  0  0  0  0  0  0  0  0
   13.0894  -16.1321   -2.8855 P   0  0  0  0  0  0  0  0  0  0  0  0
   13.6649  -15.0330   -2.0426 O   0  0  0  0  0  0  0  0  0  0  0  0
   15.3470  -20.4173   -6.1799 H   0  0  0  0  0  0  0  0  0  0  0  0
   16.6831  -17.1687   -5.9898 H   0  0  0  0  0  0  0  0  0  0  0  0
   11.8660  -16.8680   -2.4252 H   0  0  0  0  0  0  0  0  0  0  0  0
   13.2019  -13.6193   -2.2352 H   0  0  0  0  0  0  0  0  0  0  0  0
  1  2  1  0
  2  3  1  0
  3  4  1  0
  4  5  1  0
  5  6  1  0
  1  7  1  0
  2  8  1  0
  5  9  1  0
  6 10  1  0
M  END
