
     RDKit          2D

 61 63  0  0  0  0  0  0  0  0999 V2000
   22.3942  -21.7880   -4.1568 C   0  0  0  0  0  0  0  0  0  0  0  0
   20.9366  -21.5411   -4.4105 C   0  0  0  0  0  0  0  0  0  0  0  0
   20.4159  -21.5030   -5.8167 Si  0  0  0  0  0  4  0  0  0  0  0  0
   19.0954  -21.2453   -5.1536 N   0  0  0  0  0  0  0  0  0  0  0  0
   18.0574  -21.1035   -6.2271 C   0  0  0  0  0  0  0  0  0  0  0  0
   16.8235  -20.9180   -7.0597 C   0  0  0  0  0  0  0  0  0  0  0  0
   15.5897  -20.7325   -7.8924 C   0  0  0  0  0  0  0  0  0  0  0  0
   14.3559  -20.5470   -8.7249 C   0  0  0  0  0  0  0  0  0  0  0  0
   13.1221  -20.3615   -9.5575 C   0  0  0  0  0  0  0  0  0  0  0  0
   16.2435  -20.0269   -6.0016 C   0  0  0  0  0  0  0  0  0  0  0  0
   15.6634  -19.1359   -4.9435 C   0  0  0  0  0  0  0  0  0  0  0  0
   16.7051  -19.0846   -3.8654 C   0  0  0  0  0  0  0  0  0  0  0  0
   15.8255  -18.1758   -3.0588 C   0  0  0  0  0  0  0  0  0  0  0  0
   14.7839  -18.2272   -4.1370 C   0  0  0  0  0  0  0  0  0  0  0  0
   14.3216  -18.7259   -5.4740 N   0  0  0  0  0  0  0  0  0  0  0  0
   18.7364  -21.2735   -7.5538 C   0  0  0  0  0  0  0  0  0  0  0  0
   19.1278  -21.3972   -8.9965 C   0  0  0  0  0  0  0  0  0  0  0  0
   19.5193  -21.5210  -10.4392 C   0  0  0  0  0  0  0  0  0  0  0  0
   19.9108  -21.6448  -11.8820 C   0  0  0  0  0  0  0  0  0  0  0  0
   20.3022  -21.7685  -13.3247 C   0  0  0  0  0  0  0  0  0  0  0  0
   20.6935  -21.8923  -14.7674 C   0  0  0  0  0  0  0  0  0  0  0  0
   20.1941  -21.5204   -7.3001 C   0  0  0  0  0  0  0  0  0  0  0  0
   21.6698  -21.7823   -7.3592 C   0  0  0  0  0  0  0  0  0  0  0  0
   22.9148  -21.8262   -2.7506 H   0  0  0  0  0  0  0  0  0  0  0  0
   23.3312  -21.9968   -5.3095 H   0  0  0  0  0  0  0  0  0  0  0  0
   19.9995  -21.3324   -3.2579 H   0  0  0  0  0  0  0  0  0  0  0  0
   21.8801  -21.7679   -6.0060 H   0  0  0  0  0  0  0  0  0  0  0  0
   18.8550  -21.1468   -3.6762 H   0  0  0  0  0  0  0  0  0  0  0  0
   17.6838  -21.0074   -5.4298 H   0  0  0  0  0  0  0  0  0  0  0  0
   17.0747  -21.4269   -7.7398 H   0  0  0  0  0  0  0  0  0  0  0  0
   15.0227  -20.6196   -7.2214 H   0  0  0  0  0  0  0  0  0  0  0  0
   16.4057  -20.9023   -9.1395 H   0  0  0  0  0  0  0  0  0  0  0  0
   15.1683  -20.7380   -9.9714 H   0  0  0  0  0  0  0  0  0  0  0  0
   13.5435  -20.3560   -7.4785 H   0  0  0  0  0  0  0  0  0  0  0  0
   11.8882  -20.1760  -10.3901 H   0  0  0  0  0  0  0  0  0  0  0  0
   13.3932  -18.8880   -9.6310 H   0  0  0  0  0  0  0  0  0  0  0  0
   12.8509  -21.8350   -9.4840 H   0  0  0  0  0  0  0  0  0  0  0  0
   16.6897  -20.4738   -5.3806 H   0  0  0  0  0  0  0  0  0  0  0  0
   15.7588  -19.5192   -6.5418 H   0  0  0  0  0  0  0  0  0  0  0  0
   17.7467  -19.0333   -2.7872 H   0  0  0  0  0  0  0  0  0  0  0  0
   17.8105  -19.9539   -4.3871 H   0  0  0  0  0  0  0  0  0  0  0  0
   14.9458  -17.2671   -2.2523 H   0  0  0  0  0  0  0  0  0  0  0  0
   16.8670  -18.1245   -1.9807 H   0  0  0  0  0  0  0  0  0  0  0  0
   13.6646  -17.3626   -3.6370 H   0  0  0  0  0  0  0  0  0  0  0  0
   13.2800  -18.7772   -6.5521 H   0  0  0  0  0  0  0  0  0  0  0  0
   17.9689  -21.1545   -7.9794 H   0  0  0  0  0  0  0  0  0  0  0  0
   17.7036  -21.1609   -9.4033 H   0  0  0  0  0  0  0  0  0  0  0  0
   20.5893  -21.6469   -8.7687 H   0  0  0  0  0  0  0  0  0  0  0  0
   18.0949  -21.2852  -10.8459 H   0  0  0  0  0  0  0  0  0  0  0  0
   20.9438  -21.7568  -10.0325 H   0  0  0  0  0  0  0  0  0  0  0  0
   21.3355  -21.8786  -11.4753 H   0  0  0  0  0  0  0  0  0  0  0  0
   18.4860  -21.4110  -12.2886 H   0  0  0  0  0  0  0  0  0  0  0  0
   21.7267  -22.0035  -12.9181 H   0  0  0  0  0  0  0  0  0  0  0  0
   18.8775  -21.5336  -13.7313 H   0  0  0  0  0  0  0  0  0  0  0  0
   21.0849  -22.0161  -16.2102 H   0  0  0  0  0  0  0  0  0  0  0  0
   19.2689  -21.6572  -15.1741 H   0  0  0  0  0  0  0  0  0  0  0  0
   22.1180  -22.1274  -14.3608 H   0  0  0  0  0  0  0  0  0  0  0  0
   20.4599  -21.6232   -8.7728 H   0  0  0  0  0  0  0  0  0  0  0  0
   23.1456  -22.0443   -7.4182 H   0  0  0  0  0  0  0  0  0  0  0  0
   21.6022  -21.8260   -8.8571 H   0  0  0  0  0  0  0  0  0  0  0  0
   21.9169  -21.7709   -5.8797 H   0  0  0  0  0  0  0  0  0  0  0  0
  1  2  2  3
  2  3  1  0
  3  4  1  0
  4  5  1  0
  5  6  1  0
  6  7  1  0
  7  8  1  0
  8  9  1  0
  6 10  1  0
 10 11  1  0
 11 12  1  0
 12 13  1  0
 13 14  1  0
 14 15  1  0
  5 16  1  0
 16 17  1  0
 17 18  1  0
 18 19  1  0
 19 20  1  0
 20 21  1  0
 16 22  1  0
 22 23  1  0
 22  3  1  0
 14 11  1  0
 15 11  1  0
  1 24  1  0
  1 25  1  0
  2 26  1  0
  3 27  1  0
  4 28  1  0
  5 29  1  0
  6 30  1  0
  7 31  1  0
  7 32  1  0
  8 33  1  0
  8 34  1  0
  9 35  1  0
  9 36  1  0
  9 37  1  0
 10 38  1  0
 10 39  1  0
 12 40  1  0
 12 41  1  0
 13 42  1  0
 13 43  1  0
 14 44  1  0
 15 45  1  0
 16 46  1  0
 17 47  1  0
 17 48  1  0
 18 49  1  0
 18 50  1  0
 19 51  1  0
 19 52  1  0
 20 53  1  0
 20 54  1  0
 21 55  1  0
 21 56  1  0
 21 57  1  0
 22 58  1  0
 23 59  1  0
 23 60  1  0
 23 61  1  0
M  END
