
     RDKit          2D

 37 39  0  0  0  0  0  0  0  0999 V2000
   13.8458  -24.1978   -5.3758 C   0  0  0  0  0  0  0  0  0  0  0  0
   15.1054  -23.6995   -6.0200 C   0  0  0  0  0  0  0  0  0  0  0  0
   16.3650  -23.2012   -6.6643 C   0  0  0  0  0  0  0  0  0  0  0  0
   17.3596  -23.5527   -5.5980 C   0  0  0  0  0  0  0  0  0  0  0  0
   17.8181  -22.8850   -6.8606 C   0  0  0  0  0  0  0  0  0  0  0  0
   17.7655  -22.2507   -8.2188 C   0  0  0  0  0  0  0  0  0  0  0  0
   17.7130  -21.6163   -9.5771 C   0  0  0  0  0  0  0  0  0  0  0  0
   17.6604  -20.9819  -10.9353 C   0  0  0  0  0  0  0  0  0  0  0  0
   17.1032  -20.4574  -12.2254 C   0  0  0  0  0  0  0  0  0  0  0  0
   16.1890  -21.0778  -11.2107 C   0  0  0  0  0  0  0  0  0  0  0  0
   19.2503  -22.0414   -8.1785 C   0  0  0  0  0  0  0  0  0  0  0  0
   19.5599  -22.6297   -6.8339 O   0  0  0  0  0  0  0  0  0  0  0  0
   20.6276  -21.6277   -8.6052 C   0  0  0  0  0  0  0  0  0  0  0  0
   19.4564  -21.3803   -9.5092 C   0  0  0  0  0  0  0  0  0  0  0  0
   20.1533  -20.7263  -10.6653 O   0  0  0  0  0  0  0  0  0  0  0  0
   12.5862  -24.6961   -4.7315 H   0  0  0  0  0  0  0  0  0  0  0  0
   14.6337  -24.6423   -4.1792 H   0  0  0  0  0  0  0  0  0  0  0  0
   13.0579  -23.7534   -6.5723 H   0  0  0  0  0  0  0  0  0  0  0  0
   14.3174  -23.2546   -7.2164 H   0  0  0  0  0  0  0  0  0  0  0  0
   15.6711  -24.1516   -4.8807 H   0  0  0  0  0  0  0  0  0  0  0  0
   15.7161  -22.7779   -7.7700 H   0  0  0  0  0  0  0  0  0  0  0  0
   18.6718  -23.6887   -4.8840 H   0  0  0  0  0  0  0  0  0  0  0  0
   16.6716  -24.1340   -4.5925 H   0  0  0  0  0  0  0  0  0  0  0  0
   18.7221  -22.9290   -6.4739 H   0  0  0  0  0  0  0  0  0  0  0  0
   16.4335  -22.3680   -8.4038 H   0  0  0  0  0  0  0  0  0  0  0  0
   16.3924  -21.8728   -9.4641 H   0  0  0  0  0  0  0  0  0  0  0  0
   18.4718  -21.4268   -9.7310 H   0  0  0  0  0  0  0  0  0  0  0  0
   19.0650  -20.5964  -11.2940 H   0  0  0  0  0  0  0  0  0  0  0  0
   18.3628  -19.9590  -12.8697 H   0  0  0  0  0  0  0  0  0  0  0  0
   16.1085  -20.1059  -13.2917 H   0  0  0  0  0  0  0  0  0  0  0  0
   14.8769  -20.9417  -11.9247 H   0  0  0  0  0  0  0  0  0  0  0  0
   15.6245  -21.6719  -10.1380 H   0  0  0  0  0  0  0  0  0  0  0  0
   20.9731  -22.6500   -6.3315 H   0  0  0  0  0  0  0  0  0  0  0  0
   21.4155  -22.0724   -7.4088 H   0  0  0  0  0  0  0  0  0  0  0  0
   21.7312  -21.0597   -9.4474 H   0  0  0  0  0  0  0  0  0  0  0  0
   18.4356  -21.2335  -10.1515 H   0  0  0  0  0  0  0  0  0  0  0  0
   19.5248  -20.2242  -11.9313 H   0  0  0  0  0  0  0  0  0  0  0  0
  1  2  1  0
  2  3  1  0
  3  4  1  0
  4  5  1  0
  5  6  1  0
  6  7  1  0
  7  8  1  0
  8  9  1  0
  9 10  1  0
  6 11  1  0
 11 12  1  0
 11 13  1  0
 13 14  1  0
 14 15  1  0
  5  3  1  0
 10  8  1  0
 14 11  1  0
  1 16  1  0
  1 17  1  0
  1 18  1  0
  2 19  1  0
  2 20  1  0
  3 21  1  0
  4 22  1  0
  4 23  1  0
  5 24  1  0
  6 25  1  0
  7 26  1  0
  7 27  1  0
  8 28  1  0
  9 29  1  0
  9 30  1  0
 10 31  1  0
 10 32  1  0
 12 33  1  0
 13 34  1  0
 13 35  1  0
 14 36  1  0
 15 37  1  0
M  END
