
     RDKit          2D

 78 87  0  0  0  0  0  0  0  0999 V2000
   21.2819  -19.9553  -13.5756 C   0  0  0  0  0  0  0  0  0  0  0  0
   20.2685  -20.7568  -12.8136 C   0  0  0  0  0  0  0  0  0  0  0  0
   19.2552  -21.5583  -12.0516 C   0  0  0  0  0  0  0  0  0  0  0  0
   18.2418  -22.3598  -11.2895 C   0  0  0  0  0  0  0  0  0  0  0  0
   17.2285  -23.1613  -10.5275 C   0  0  0  0  0  0  0  0  0  0  0  0
   18.2616  -22.1115  -10.2436 C   0  0  0  0  0  0  0  0  0  0  0  0
   18.4604  -21.6143   -8.8424 C   0  0  0  0  0  0  0  0  0  0  0  0
   17.4272  -22.6641   -9.1263 C   0  0  0  0  0  0  0  0  0  0  0  0
   17.6260  -22.1668   -7.7251 C   0  0  0  0  0  0  0  0  0  0  0  0
   18.0446  -21.4881   -6.4547 C   0  0  0  0  0  0  0  0  0  0  0  0
   19.1376  -20.5161   -6.7868 C   0  0  0  0  0  0  0  0  0  0  0  0
   19.6259  -19.7831   -5.5726 C   0  0  0  0  0  0  0  0  0  0  0  0
   20.6310  -18.7381   -5.1880 C   0  0  0  0  0  0  0  0  0  0  0  0
   21.6825  -17.8700   -5.8131 C   0  0  0  0  0  0  0  0  0  0  0  0
   22.2885  -17.5852   -7.1553 C   0  0  0  0  0  0  0  0  0  0  0  0
   22.1655  -18.0167   -8.5866 O   0  0  0  0  0  0  0  0  0  0  0  0
   21.3709  -18.9627   -9.4373 C   0  0  0  0  0  0  0  0  0  0  0  0
   20.9701  -19.6273  -10.7209 O   0  0  0  0  0  0  0  0  0  0  0  0
   21.9906  -18.8141  -11.4607 C   0  0  0  0  0  0  0  0  0  0  0  0
   23.0111  -18.0008  -12.2004 C   0  0  0  0  0  0  0  0  0  0  0  0
   23.4119  -17.3362  -10.9169 N   0  0  0  0  0  0  0  0  0  0  0  0
   22.3914  -18.1494  -10.1771 C   0  0  0  0  0  0  0  0  0  0  0  0
   20.2767  -19.9806   -9.3093 O   0  0  0  0  0  0  0  0  0  0  0  0
   19.3947  -20.5941   -8.2626 C   0  0  0  0  0  0  0  0  0  0  0  0
   16.5928  -23.2166   -8.0089 C   0  0  0  0  0  0  0  0  0  0  0  0
   15.4964  -24.2140   -7.7783 C   0  0  0  0  0  0  0  0  0  0  0  0
   16.3941  -23.7138   -9.4101 C   0  0  0  0  0  0  0  0  0  0  0  0
   15.4598  -24.7340   -9.9900 C   0  0  0  0  0  0  0  0  0  0  0  0
   15.7168  -24.8120  -11.4657 O   0  0  0  0  0  0  0  0  0  0  0  0
   16.8098  -23.8400  -11.7979 C   0  0  0  0  0  0  0  0  0  0  0  0
   16.9540  -24.0270  -13.2792 C   0  0  0  0  0  0  0  0  0  0  0  0
   17.3210  -23.9952  -14.7333 C   0  0  0  0  0  0  0  0  0  0  0  0
   18.4170  -22.9869  -14.9127 C   0  0  0  0  0  0  0  0  0  0  0  0
   18.7274  -22.3956  -13.5695 C   0  0  0  0  0  0  0  0  0  0  0  0
   17.8232  -23.0385  -12.5600 C   0  0  0  0  0  0  0  0  0  0  0  0
   22.2952  -19.1538  -14.3377 H   0  0  0  0  0  0  0  0  0  0  0  0
   22.2678  -19.7956  -12.4565 H   0  0  0  0  0  0  0  0  0  0  0  0
   20.4130  -20.0178  -14.7968 H   0  0  0  0  0  0  0  0  0  0  0  0
   20.1883  -21.5320  -14.0953 H   0  0  0  0  0  0  0  0  0  0  0  0
   20.4737  -19.8774  -11.6158 H   0  0  0  0  0  0  0  0  0  0  0  0
   19.3891  -22.1170  -12.9819 H   0  0  0  0  0  0  0  0  0  0  0  0
   19.4062  -20.6834  -11.2221 H   0  0  0  0  0  0  0  0  0  0  0  0
   18.5880  -21.9068  -10.7323 H   0  0  0  0  0  0  0  0  0  0  0  0
   19.0609  -21.3845  -10.4118 H   0  0  0  0  0  0  0  0  0  0  0  0
   18.6999  -22.0064  -11.6743 H   0  0  0  0  0  0  0  0  0  0  0  0
   17.3422  -23.0620  -10.5701 H   0  0  0  0  0  0  0  0  0  0  0  0
   16.3614  -23.7114   -9.2566 H   0  0  0  0  0  0  0  0  0  0  0  0
   16.9930  -22.3562   -5.8296 H   0  0  0  0  0  0  0  0  0  0  0  0
   17.9765  -21.2295   -4.9787 H   0  0  0  0  0  0  0  0  0  0  0  0
   18.5968  -20.7298   -5.4041 H   0  0  0  0  0  0  0  0  0  0  0  0
   18.6226  -20.5685   -4.7811 H   0  0  0  0  0  0  0  0  0  0  0  0
   19.3627  -19.7113   -4.0976 H   0  0  0  0  0  0  0  0  0  0  0  0
   20.0303  -19.0171   -3.8422 H   0  0  0  0  0  0  0  0  0  0  0  0
   21.1135  -18.0096   -3.9688 H   0  0  0  0  0  0  0  0  0  0  0  0
   21.8119  -17.4330   -4.3840 H   0  0  0  0  0  0  0  0  0  0  0  0
   22.6849  -16.8257   -5.4202 H   0  0  0  0  0  0  0  0  0  0  0  0
   23.0875  -16.6364   -6.3117 H   0  0  0  0  0  0  0  0  0  0  0  0
   23.2969  -16.7916   -7.9320 H   0  0  0  0  0  0  0  0  0  0  0  0
   21.7171  -19.3746  -12.8248 H   0  0  0  0  0  0  0  0  0  0  0  0
   24.0316  -17.1876  -12.9402 H   0  0  0  0  0  0  0  0  0  0  0  0
   22.6102  -18.6655  -13.4840 H   0  0  0  0  0  0  0  0  0  0  0  0
   24.4170  -16.2912  -10.5323 H   0  0  0  0  0  0  0  0  0  0  0  0
   23.0273  -17.3078   -9.1106 H   0  0  0  0  0  0  0  0  0  0  0  0
   19.4817  -20.8350   -9.7406 H   0  0  0  0  0  0  0  0  0  0  0  0
   16.4108  -23.0658   -6.5277 H   0  0  0  0  0  0  0  0  0  0  0  0
   14.4001  -25.2114   -7.5477 H   0  0  0  0  0  0  0  0  0  0  0  0
   15.5101  -23.8904   -6.3137 H   0  0  0  0  0  0  0  0  0  0  0  0
   14.9695  -24.9680   -8.9631 H   0  0  0  0  0  0  0  0  0  0  0  0
   15.3667  -24.5386   -8.6929 H   0  0  0  0  0  0  0  0  0  0  0  0
   14.7615  -25.1232   -8.7208 H   0  0  0  0  0  0  0  0  0  0  0  0
   14.4266  -25.7838  -10.2738 H   0  0  0  0  0  0  0  0  0  0  0  0
   15.8882  -25.0745  -13.4095 H   0  0  0  0  0  0  0  0  0  0  0  0
   16.2552  -25.0425  -14.8635 H   0  0  0  0  0  0  0  0  0  0  0  0
   17.4652  -24.1822  -16.2146 H   0  0  0  0  0  0  0  0  0  0  0  0
   18.3321  -23.3847  -16.3565 H   0  0  0  0  0  0  0  0  0  0  0  0
   19.4953  -22.0618  -15.3939 H   0  0  0  0  0  0  0  0  0  0  0  0
   19.6822  -21.6829  -14.4807 H   0  0  0  0  0  0  0  0  0  0  0  0
   19.4673  -21.4837  -12.6364 H   0  0  0  0  0  0  0  0  0  0  0  0
  1  2  1  0
  2  3  1  0
  3  4  1  0
  4  5  1  0
  5  6  1  0
  6  7  1  0
  7  8  1  0
  8  9  1  0
  9 10  1  0
 10 11  1  0
 11 12  1  0
 12 13  1  0
 13 14  1  0
 14 15  1  0
 15 16  1  0
 16 17  1  0
 17 18  1  0
 18 19  1  0
 19 20  1  0
 20 21  1  0
 21 22  1  0
 17 23  1  0
 23 24  1  0
  9 25  1  0
 25 26  1  0
 25 27  1  0
 27 28  1  0
 28 29  1  0
 29 30  1  0
 30 31  1  0
 31 32  1  0
 32 33  1  0
 33 34  1  0
 34 35  1  0
 35  4  1  0
 27  5  1  0
 35 30  1  0
 30  5  1  0
 35 31  1  0
  9  7  1  0
 24 11  1  0
 24  7  1  0
 22 17  1  0
 22 19  1  0
  1 36  1  0
  1 37  1  0
  1 38  1  0
  2 39  1  0
  2 40  1  0
  3 41  1  0
  3 42  1  0
  4 43  1  0
  6 44  1  0
  6 45  1  0
  8 46  1  0
  8 47  1  0
 10 48  1  0
 10 49  1  0
 11 50  1  0
 12 51  1  0
 12 52  1  0
 13 53  1  0
 13 54  1  0
 14 55  1  0
 14 56  1  0
 15 57  1  0
 15 58  1  0
 19 59  1  0
 20 60  1  0
 20 61  1  0
 21 62  1  0
 22 63  1  0
 24 64  1  0
 25 65  1  0
 26 66  1  0
 26 67  1  0
 26 68  1  0
 27 69  1  0
 28 70  1  0
 28 71  1  0
 31 72  1  0
 32 73  1  0
 32 74  1  0
 33 75  1  0
 33 76  1  0
 34 77  1  0
 34 78  1  0
M  END
