
     RDKit          2D

 23 24  0  0  0  0  0  0  0  0999 V2000
    0.4567   24.3908    7.0550 C   0  0  0  0  0  0  0  0  0  0  0  0
   -0.1328   25.3628    6.0763 C   0  0  0  0  0  0  0  0  0  0  0  0
   -0.7223   26.3347    5.0977 O   0  0  0  0  0  0  0  0  0  0  0  0
   -1.7480   25.8716    4.1060 C   0  0  0  0  0  0  0  0  0  0  0  0
   -2.7738   25.4085    3.1144 C   0  0  0  0  0  0  0  0  0  0  0  0
   -2.7931   23.9780    3.5653 C   0  0  0  0  0  0  0  0  0  0  0  0
   -3.6749   24.4202    2.4353 C   0  0  0  0  0  0  0  0  0  0  0  0
   -4.4270   25.1431    1.3574 C   0  0  0  0  0  0  0  0  0  0  0  0
   -5.4379   24.5372    0.4295 O   0  0  0  0  0  0  0  0  0  0  0  0
   -3.9907   26.5782    1.3704 O   0  0  0  0  0  0  0  0  0  0  0  0
   -2.9690   26.7422    2.4562 C   0  0  0  0  0  0  0  0  0  0  0  0
   -2.9497   28.1727    2.0054 F   0  0  0  0  0  0  0  0  0  0  0  0
    1.0461   23.4189    8.0337 H   0  0  0  0  0  0  0  0  0  0  0  0
   -0.3896   23.2955    6.4770 H   0  0  0  0  0  0  0  0  0  0  0  0
    1.3030   25.4861    7.6331 H   0  0  0  0  0  0  0  0  0  0  0  0
   -1.0809   24.3042    5.5961 H   0  0  0  0  0  0  0  0  0  0  0  0
    0.8153   26.4213    6.5566 H   0  0  0  0  0  0  0  0  0  0  0  0
   -1.5475   26.7344    3.6771 H   0  0  0  0  0  0  0  0  0  0  0  0
   -1.7930   24.8979    4.8314 H   0  0  0  0  0  0  0  0  0  0  0  0
   -2.0003   23.8835    4.4811 H   0  0  0  0  0  0  0  0  0  0  0  0
   -3.1633   22.5259    3.6317 H   0  0  0  0  0  0  0  0  0  0  0  0
   -4.2955   23.0776    2.1861 H   0  0  0  0  0  0  0  0  0  0  0  0
   -2.3080   27.1550    3.0574 H   0  0  0  0  0  0  0  0  0  0  0  0
  1  2  1  0
  2  3  1  0
  3  4  1  0
  4  5  1  0
  5  6  1  0
  6  7  1  0
  7  8  1  0
  8  9  2  0
  8 10  1  0
 10 11  1  0
 11 12  1  0
  7  5  1  0
 11  5  1  0
  1 13  1  0
  1 14  1  0
  1 15  1  0
  2 16  1  0
  2 17  1  0
  4 18  1  0
  4 19  1  0
  6 20  1  0
  6 21  1  0
  7 22  1  0
 11 23  1  0
M  END
