
     RDKit          2D

103110  0  0  0  0  0  0  0  0999 V2000
   -1.2335   21.3293    8.3686 C   0  0  0  0  0  0  0  0  0  0  0  0
   -1.9238   22.6389    8.1266 C   0  0  0  0  0  0  0  0  0  0  0  0
   -3.0035   22.7373    7.0900 C   0  0  0  0  0  0  0  0  0  0  0  0
   -3.6937   24.0469    6.8480 C   0  0  0  0  0  0  0  0  0  0  0  0
   -4.7733   24.1454    5.8114 C   0  0  0  0  0  0  0  0  0  0  0  0
   -5.1628   22.9343    5.0167 C   0  0  0  0  0  0  0  0  0  0  0  0
   -4.4725   21.6247    5.2587 C   0  0  0  0  0  0  0  0  0  0  0  0
   -3.3929   21.5262    6.2953 C   0  0  0  0  0  0  0  0  0  0  0  0
   -2.3711   20.7133    7.0335 C   0  0  0  0  0  0  0  0  0  0  0  0
   -2.1974   19.2579    6.7144 C   0  0  0  0  0  0  0  0  0  0  0  0
   -1.1040   18.9083    7.6799 C   0  0  0  0  0  0  0  0  0  0  0  0
   -3.2193   20.0709    5.9762 C   0  0  0  0  0  0  0  0  0  0  0  0
   -2.6380   24.1012    7.9124 C   0  0  0  0  0  0  0  0  0  0  0  0
   -2.5834   25.5042    8.4400 C   0  0  0  0  0  0  0  0  0  0  0  0
   -3.6053   26.3172    7.7018 C   0  0  0  0  0  0  0  0  0  0  0  0
   -3.1112   27.4367    8.5693 C   0  0  0  0  0  0  0  0  0  0  0  0
   -3.7775   28.4312    7.6655 Mg  0  0  0  0  0  2  0  0  0  0  0  0
   -4.4439   29.4257    6.7616 C   0  0  0  0  0  0  0  0  0  0  0  0
   -3.9497   30.5452    7.6291 C   0  0  0  0  0  0  0  0  0  0  0  0
   -3.4556   31.6647    8.4966 C   0  0  0  0  0  0  0  0  0  0  0  0
   -3.9663   32.6625    7.4998 C   0  0  0  0  0  0  0  0  0  0  0  0
   -3.4722   33.7820    8.3672 C   0  0  0  0  0  0  0  0  0  0  0  0
   -2.9781   34.9015    9.2347 C   0  0  0  0  0  0  0  0  0  0  0  0
   -2.4839   36.0210   10.1022 C   0  0  0  0  0  0  0  0  0  0  0  0
   -2.4674   33.9037   10.2315 C   0  0  0  0  0  0  0  0  0  0  0  0
   -1.9567   32.9059   11.2283 C   0  0  0  0  0  0  0  0  0  0  0  0
   -1.4460   31.9081   12.2251 C   0  0  0  0  0  0  0  0  0  0  0  0
   -1.3342   34.0167   12.0214 N   0  0  0  0  0  0  0  0  0  0  0  0
   -0.5808   33.7079   13.2811 C   0  0  0  0  0  0  0  0  0  0  0  0
   -1.4653   35.4361   11.5545 N   0  0  0  0  0  0  0  0  0  0  0  0
   -2.9615   32.7842    9.3641 C   0  0  0  0  0  0  0  0  0  0  0  0
   -4.9380   28.3061    5.8941 O   0  0  0  0  0  0  0  0  0  0  0  0
   -5.7614   28.6077    4.6771 C   0  0  0  0  0  0  0  0  0  0  0  0
   -5.5247   29.9999    5.1829 C   0  0  0  0  0  0  0  0  0  0  0  0
   -6.0942   31.1737    4.4428 C   0  0  0  0  0  0  0  0  0  0  0  0
   -6.9005   30.9555    3.1970 C   0  0  0  0  0  0  0  0  0  0  0  0
   -7.1372   29.5633    2.6911 C   0  0  0  0  0  0  0  0  0  0  0  0
   -7.3739   28.1711    2.1853 O   0  0  0  0  0  0  0  0  0  0  0  0
   -6.5677   28.3894    3.4312 C   0  0  0  0  0  0  0  0  0  0  0  0
   -2.6170   28.5562    9.4368 C   0  0  0  0  0  0  0  0  0  0  0  0
   -2.1229   29.6757   10.3043 C   0  0  0  0  0  0  0  0  0  0  0  0
   -3.7239   29.4346    8.9336 O   0  0  0  0  0  0  0  0  0  0  0  0
   -4.2915   25.4165    6.7179 C   0  0  0  0  0  0  0  0  0  0  0  0
   -0.4451   20.1077    8.7376 H   0  0  0  0  0  0  0  0  0  0  0  0
   -0.3853   21.9717    9.4259 H   0  0  0  0  0  0  0  0  0  0  0  0
   -1.6639   20.7125    7.7339 H   0  0  0  0  0  0  0  0  0  0  0  0
   -1.4127   23.7419    9.0053 H   0  0  0  0  0  0  0  0  0  0  0  0
   -5.0220   25.6042    6.0574 H   0  0  0  0  0  0  0  0  0  0  0  0
   -5.8473   24.7357    4.9464 H   0  0  0  0  0  0  0  0  0  0  0  0
   -6.1015   23.9453    4.4277 H   0  0  0  0  0  0  0  0  0  0  0  0
   -5.8782   22.0744    4.0175 H   0  0  0  0  0  0  0  0  0  0  0  0
   -5.4277   21.2195    4.1754 H   0  0  0  0  0  0  0  0  0  0  0  0
   -4.2427   20.1662    4.9942 H   0  0  0  0  0  0  0  0  0  0  0  0
   -1.8449   20.8762    7.6098 H   0  0  0  0  0  0  0  0  0  0  0  0
   -2.4035   17.9241    6.0599 H   0  0  0  0  0  0  0  0  0  0  0  0
   -0.0106   18.5586    8.6453 H   0  0  0  0  0  0  0  0  0  0  0  0
   -1.1235   17.4911    7.1887 H   0  0  0  0  0  0  0  0  0  0  0  0
   -0.9513   20.2722    8.2851 H   0  0  0  0  0  0  0  0  0  0  0  0
   -3.9770   19.2736    4.9563 H   0  0  0  0  0  0  0  0  0  0  0  0
   -1.9777   22.7700    8.1174 H   0  0  0  0  0  0  0  0  0  0  0  0
   -1.5616   24.0281    8.9544 H   0  0  0  0  0  0  0  0  0  0  0  0
   -1.5030   24.9608    9.3273 H   0  0  0  0  0  0  0  0  0  0  0  0
   -2.1762   26.7009    9.2475 H   0  0  0  0  0  0  0  0  0  0  0  0
   -4.5239   27.3642    7.1449 H   0  0  0  0  0  0  0  0  0  0  0  0
   -2.3896   26.5861    9.5722 H   0  0  0  0  0  0  0  0  0  0  0  0
   -5.0451   30.5492    5.9702 H   0  0  0  0  0  0  0  0  0  0  0  0
   -4.6693   31.5350    6.7616 H   0  0  0  0  0  0  0  0  0  0  0  0
   -3.3712   29.3139    8.2609 H   0  0  0  0  0  0  0  0  0  0  0  0
   -2.9450   30.6669    9.4934 H   0  0  0  0  0  0  0  0  0  0  0  0
   -4.4770   33.6603    6.5030 H   0  0  0  0  0  0  0  0  0  0  0  0
   -4.5693   31.8178    6.4169 H   0  0  0  0  0  0  0  0  0  0  0  0
   -3.9828   34.7798    7.3704 H   0  0  0  0  0  0  0  0  0  0  0  0
   -3.4887   35.8993    8.2379 H   0  0  0  0  0  0  0  0  0  0  0  0
   -1.9898   37.1406   10.9697 H   0  0  0  0  0  0  0  0  0  0  0  0
   -3.1518   37.0154    9.1993 H   0  0  0  0  0  0  0  0  0  0  0  0
   -1.8812   34.8976   10.8926 H   0  0  0  0  0  0  0  0  0  0  0  0
   -2.0392   35.1365   10.9711 H   0  0  0  0  0  0  0  0  0  0  0  0
   -2.5122   31.6818   10.5628 H   0  0  0  0  0  0  0  0  0  0  0  0
   -0.9354   30.9103   13.2219 H   0  0  0  0  0  0  0  0  0  0  0  0
   -0.8374   32.5960   13.4110 H   0  0  0  0  0  0  0  0  0  0  0  0
   -1.9608   30.9181   11.2227 H   0  0  0  0  0  0  0  0  0  0  0  0
    0.1727   33.3992   14.5408 H   0  0  0  0  0  0  0  0  0  0  0  0
   -0.2983   35.1689   13.4702 H   0  0  0  0  0  0  0  0  0  0  0  0
   -0.7693   32.2202   13.2469 H   0  0  0  0  0  0  0  0  0  0  0  0
   -0.8429   36.5469   12.3476 H   0  0  0  0  0  0  0  0  0  0  0  0
   -2.1277   36.0892   10.3778 H   0  0  0  0  0  0  0  0  0  0  0  0
   -2.5149   31.6574   10.2476 H   0  0  0  0  0  0  0  0  0  0  0  0
   -5.7121   27.1109    4.5939 H   0  0  0  0  0  0  0  0  0  0  0  0
   -5.3019   31.4015    5.6686 H   0  0  0  0  0  0  0  0  0  0  0  0
   -4.7157   29.5467    6.3621 H   0  0  0  0  0  0  0  0  0  0  0  0
   -6.4235   32.5948    4.0933 H   0  0  0  0  0  0  0  0  0  0  0  0
   -5.4023   31.8856    5.5674 H   0  0  0  0  0  0  0  0  0  0  0  0
   -7.7239   31.2570    1.9799 H   0  0  0  0  0  0  0  0  0  0  0  0
   -6.9497   32.4523    3.2801 H   0  0  0  0  0  0  0  0  0  0  0  0
   -7.9315   30.1150    1.5446 H   0  0  0  0  0  0  0  0  0  0  0  0
   -6.3755   26.9080    3.5664 H   0  0  0  0  0  0  0  0  0  0  0  0
   -1.5102   27.6778    9.9400 H   0  0  0  0  0  0  0  0  0  0  0  0
   -1.7514   30.9009   11.0859 H   0  0  0  0  0  0  0  0  0  0  0  0
   -1.1474   28.7406   10.9553 H   0  0  0  0  0  0  0  0  0  0  0  0
   -3.0985   30.6108    9.6532 H   0  0  0  0  0  0  0  0  0  0  0  0
   -3.5176   30.7716    9.5816 H   0  0  0  0  0  0  0  0  0  0  0  0
   -5.0666   26.6518    6.3667 H   0  0  0  0  0  0  0  0  0  0  0  0
   -5.2815   25.1102    5.6335 H   0  0  0  0  0  0  0  0  0  0  0  0
  1  2  1  0
  2  3  2  3
  3  4  1  0
  4  5  1  1
  5  6  1  0
  6  7  1  0
  8  7  1  6
  8  9  1  0
  9 10  1  0
 10 11  1  0
 10 12  1  0
  4 13  1  0
 13 14  1  0
 14 15  1  0
 15 16  1  0
 16 17  1  0
 17 18  1  0
 18 19  1  0
 19 20  1  0
 20 21  1  0
 21 22  1  0
 22 23  1  0
 23 24  1  0
 23 25  1  0
 25 26  1  0
 26 27  1  0
 26 28  1  0
 28 29  1  0
 28 30  1  0
 25 31  1  0
 18 32  1  0
 32 33  1  0
 33 34  1  0
 34 35  1  0
 35 36  1  0
 36 37  1  0
 37 38  1  0
 38 39  1  0
 16 40  1  0
 40 41  1  0
 40 42  1  0
 15 43  1  0
  8  3  1  0
 12  9  1  0
 31 20  1  0
 39 33  1  0
 43  4  1  0
 12  8  1  0
 31 22  1  0
 39 37  1  0
  1 44  1  0
  1 45  1  0
  1 46  1  0
  2 47  1  0
  5 48  1  0
  5 49  1  0
  6 50  1  0
  6 51  1  0
  7 52  1  0
  7 53  1  0
  9 54  1  6
 10 55  1  6
 11 56  1  0
 11 57  1  0
 11 58  1  0
 12 59  1  6
 13 60  1  0
 13 61  1  0
 14 62  1  0
 14 63  1  0
 15 64  1  1
 16 65  1  6
 18 66  1  6
 19 67  1  0
 19 68  1  0
 20 69  1  1
 21 70  1  0
 21 71  1  0
 22 72  1  6
 23 73  1  1
 24 74  1  0
 24 75  1  0
 24 76  1  0
 25 77  1  1
 26 78  1  6
 27 79  1  0
 27 80  1  0
 27 81  1  0
 29 82  1  0
 29 83  1  0
 29 84  1  0
 30 85  1  0
 30 86  1  0
 31 87  1  6
 33 88  1  1
 34 89  1  0
 34 90  1  0
 35 91  1  0
 35 92  1  0
 36 93  1  0
 36 94  1  0
 37 95  1  1
 39 96  1  1
 40 97  1  6
 41 98  1  0
 41 99  1  0
 41100  1  0
 42101  1  0
 43102  1  0
 43103  1  0
M  END
