
     RDKit          2D

101108  0  0  0  0  0  0  0  0999 V2000
   12.6621  -24.3086   -7.1962 C   0  0  0  0  0  0  0  0  0  0  0  0
   13.3926  -24.1264   -8.4935 C   0  0  0  0  0  0  0  0  0  0  0  0
   12.8271  -25.2193   -9.3514 C   0  0  0  0  0  0  0  0  0  0  0  0
   12.6988  -26.0146  -10.6167 C   0  0  0  0  0  0  0  0  0  0  0  0
   13.0330  -26.3548  -12.0389 C   0  0  0  0  0  0  0  0  0  0  0  0
   13.7636  -26.1726  -13.3361 C   0  0  0  0  0  0  0  0  0  0  0  0
   12.8015  -27.3214  -13.4056 C   0  0  0  0  0  0  0  0  0  0  0  0
   11.8394  -28.4701  -13.4751 C   0  0  0  0  0  0  0  0  0  0  0  0
   10.8773  -29.6189  -13.5446 C   0  0  0  0  0  0  0  0  0  0  0  0
   14.7458  -25.5041  -14.2517 C   0  0  0  0  0  0  0  0  0  0  0  0
   14.0557  -26.6498  -14.9308 C   0  0  0  0  0  0  0  0  0  0  0  0
   15.7852  -24.4816  -14.6042 C   0  0  0  0  0  0  0  0  0  0  0  0
   16.6759  -23.3076  -14.3237 O   0  0  0  0  0  0  0  0  0  0  0  0
   17.2414  -22.2148  -13.4658 C   0  0  0  0  0  0  0  0  0  0  0  0
   18.2781  -21.3475  -14.1161 C   0  0  0  0  0  0  0  0  0  0  0  0
   19.3150  -20.4803  -14.7665 C   0  0  0  0  0  0  0  0  0  0  0  0
   18.9006  -19.2445  -15.5089 C   0  0  0  0  0  0  0  0  0  0  0  0
   20.7660  -20.8488  -14.6743 N   0  0  0  0  0  0  0  0  0  0  0  0
   21.8028  -19.9815  -15.3247 C   0  0  0  0  0  0  0  0  0  0  0  0
   21.1804  -22.0845  -13.9319 C   0  0  0  0  0  0  0  0  0  0  0  0
   21.5947  -23.3203  -13.1894 C   0  0  0  0  0  0  0  0  0  0  0  0
   18.4065  -20.5523  -12.8508 C   0  0  0  0  0  0  0  0  0  0  0  0
   17.9993  -20.2971  -11.4299 C   0  0  0  0  0  0  0  0  0  0  0  0
   18.1276  -19.5018  -10.1646 O   0  0  0  0  0  0  0  0  0  0  0  0
   17.0355  -21.0792  -10.7783 C   0  0  0  0  0  0  0  0  0  0  0  0
   16.3049  -21.2615   -9.4811 C   0  0  0  0  0  0  0  0  0  0  0  0
   17.2670  -20.1127   -9.4116 C   0  0  0  0  0  0  0  0  0  0  0  0
   18.2290  -18.9640   -9.3421 C   0  0  0  0  0  0  0  0  0  0  0  0
   19.1333  -18.4763  -10.4351 O   0  0  0  0  0  0  0  0  0  0  0  0
   18.3574  -18.1686   -8.0768 C   0  0  0  0  0  0  0  0  0  0  0  0
   18.4858  -17.3733   -6.8115 C   0  0  0  0  0  0  0  0  0  0  0  0
   18.3957  -16.7757   -5.4386 C   0  0  0  0  0  0  0  0  0  0  0  0
   19.3579  -15.6269   -5.3691 C   0  0  0  0  0  0  0  0  0  0  0  0
   20.0424  -15.5146   -6.6991 C   0  0  0  0  0  0  0  0  0  0  0  0
   19.5035  -16.5940   -7.5905 N   0  0  0  0  0  0  0  0  0  0  0  0
   15.3226  -21.9300   -8.5655 C   0  0  0  0  0  0  0  0  0  0  0  0
   14.2833  -22.9524   -8.2130 C   0  0  0  0  0  0  0  0  0  0  0  0
   14.7115  -21.9369   -7.1957 C   0  0  0  0  0  0  0  0  0  0  0  0
   15.5589  -20.7602   -6.8117 C   0  0  0  0  0  0  0  0  0  0  0  0
   16.5983  -19.7376   -7.1642 C   0  0  0  0  0  0  0  0  0  0  0  0
   16.6748  -18.9865   -5.8681 C   0  0  0  0  0  0  0  0  0  0  0  0
   16.1700  -20.7532   -8.1816 C   0  0  0  0  0  0  0  0  0  0  0  0
   17.3697  -21.4195  -12.2005 C   0  0  0  0  0  0  0  0  0  0  0  0
   11.6501  -25.4064   -7.0531 H   0  0  0  0  0  0  0  0  0  0  0  0
   12.9435  -23.3929   -6.0420 H   0  0  0  0  0  0  0  0  0  0  0  0
   12.2161  -25.2261   -7.9815 H   0  0  0  0  0  0  0  0  0  0  0  0
   12.0718  -25.9760   -9.1221 H   0  0  0  0  0  0  0  0  0  0  0  0
   11.9901  -26.4824   -9.9278 H   0  0  0  0  0  0  0  0  0  0  0  0
   12.1819  -26.7088  -10.8048 H   0  0  0  0  0  0  0  0  0  0  0  0
   12.4784  -26.8460  -11.7444 H   0  0  0  0  0  0  0  0  0  0  0  0
   12.5097  -27.2695  -12.6435 H   0  0  0  0  0  0  0  0  0  0  0  0
   13.5806  -26.8804  -14.3066 H   0  0  0  0  0  0  0  0  0  0  0  0
   13.0980  -27.7229  -14.8202 H   0  0  0  0  0  0  0  0  0  0  0  0
   12.3236  -27.2120  -12.1478 H   0  0  0  0  0  0  0  0  0  0  0  0
   12.2581  -28.7350  -14.8910 H   0  0  0  0  0  0  0  0  0  0  0  0
   11.4208  -28.2051  -12.0593 H   0  0  0  0  0  0  0  0  0  0  0  0
    9.9153  -30.7676  -13.6140 H   0  0  0  0  0  0  0  0  0  0  0  0
   10.4593  -29.3544  -12.1285 H   0  0  0  0  0  0  0  0  0  0  0  0
   11.2954  -29.8833  -14.9607 H   0  0  0  0  0  0  0  0  0  0  0  0
   15.1070  -25.8134  -15.6743 H   0  0  0  0  0  0  0  0  0  0  0  0
   13.4664  -27.7541  -15.7573 H   0  0  0  0  0  0  0  0  0  0  0  0
   14.8401  -26.3812  -16.1809 H   0  0  0  0  0  0  0  0  0  0  0  0
   13.1277  -27.1876  -13.8822 H   0  0  0  0  0  0  0  0  0  0  0  0
   15.6285  -25.3004  -15.8512 H   0  0  0  0  0  0  0  0  0  0  0  0
   16.6189  -24.1282  -15.8000 H   0  0  0  0  0  0  0  0  0  0  0  0
   17.5656  -22.5664  -14.8875 H   0  0  0  0  0  0  0  0  0  0  0  0
   18.1498  -22.1429  -15.3814 H   0  0  0  0  0  0  0  0  0  0  0  0
   19.9374  -18.3772  -16.1592 H   0  0  0  0  0  0  0  0  0  0  0  0
   17.5041  -18.7308  -15.6983 H   0  0  0  0  0  0  0  0  0  0  0  0
   22.8396  -19.1142  -15.9750 H   0  0  0  0  0  0  0  0  0  0  0  0
   22.8801  -20.9063  -14.8405 H   0  0  0  0  0  0  0  0  0  0  0  0
   20.7256  -19.0568  -15.8088 H   0  0  0  0  0  0  0  0  0  0  0  0
   19.8154  -22.4717  -13.4450 H   0  0  0  0  0  0  0  0  0  0  0  0
   22.6065  -21.8463  -14.3312 H   0  0  0  0  0  0  0  0  0  0  0  0
   22.0091  -24.5560  -12.4470 H   0  0  0  0  0  0  0  0  0  0  0  0
   23.0699  -23.0487  -13.1911 H   0  0  0  0  0  0  0  0  0  0  0  0
   22.9689  -22.7474  -13.3721 H   0  0  0  0  0  0  0  0  0  0  0  0
   19.4159  -19.4502  -12.9798 H   0  0  0  0  0  0  0  0  0  0  0  0
   19.1321  -18.3927  -10.2688 H   0  0  0  0  0  0  0  0  0  0  0  0
   17.8529  -19.9042  -10.3299 H   0  0  0  0  0  0  0  0  0  0  0  0
   16.5308  -20.3876   -8.2830 H   0  0  0  0  0  0  0  0  0  0  0  0
   17.9942  -19.9411  -10.7122 H   0  0  0  0  0  0  0  0  0  0  0  0
   16.8573  -19.8555   -7.9916 H   0  0  0  0  0  0  0  0  0  0  0  0
   19.3796  -17.4124   -8.8726 H   0  0  0  0  0  0  0  0  0  0  0  0
   17.3040  -19.1188   -7.5895 H   0  0  0  0  0  0  0  0  0  0  0  0
   17.4467  -18.3973   -6.4625 H   0  0  0  0  0  0  0  0  0  0  0  0
   17.3700  -17.8463   -5.2112 H   0  0  0  0  0  0  0  0  0  0  0  0
   18.0913  -16.4019   -4.0182 H   0  0  0  0  0  0  0  0  0  0  0  0
   18.8523  -15.4933   -3.9633 H   0  0  0  0  0  0  0  0  0  0  0  0
   20.2142  -14.4503   -5.0058 H   0  0  0  0  0  0  0  0  0  0  0  0
   20.7557  -14.3614   -6.0576 H   0  0  0  0  0  0  0  0  0  0  0  0
   20.8762  -15.1612   -7.8949 H   0  0  0  0  0  0  0  0  0  0  0  0
   20.0249  -16.7072   -8.9924 H   0  0  0  0  0  0  0  0  0  0  0  0
   13.4989  -23.2211   -6.9630 H   0  0  0  0  0  0  0  0  0  0  0  0
   13.9019  -22.2481   -5.9718 H   0  0  0  0  0  0  0  0  0  0  0  0
   15.0716  -20.6032   -5.4018 H   0  0  0  0  0  0  0  0  0  0  0  0
   17.5722  -19.0910   -8.1039 H   0  0  0  0  0  0  0  0  0  0  0  0
   16.7512  -18.2355   -4.5719 H   0  0  0  0  0  0  0  0  0  0  0  0
   17.7153  -18.1928   -6.6010 H   0  0  0  0  0  0  0  0  0  0  0  0
   15.6342  -19.7803   -5.1351 H   0  0  0  0  0  0  0  0  0  0  0  0
   17.1153  -20.1767   -9.1934 H   0  0  0  0  0  0  0  0  0  0  0  0
  1  2  2  3
  2  3  1  0
  3  4  1  0
  4  5  1  0
  5  6  1  0
  6  7  1  0
  7  8  1  0
  8  9  1  0
  6 10  1  0
 10 11  1  0
 10 12  1  0
 12 13  1  0
 13 14  1  0
 14 15  1  0
 15 16  1  0
 16 17  2  3
 16 18  1  0
 18 19  1  0
 18 20  1  0
 20 21  1  0
 15 22  1  0
 22 23  1  0
 23 24  1  0
 23 25  1  0
 25 26  1  0
 26 27  1  0
 27 28  1  0
 28 29  2  0
 28 30  1  0
 30 31  1  0
 31 32  1  0
 32 33  1  0
 33 34  1  0
 34 35  1  0
 26 36  1  0
 36 37  1  0
 37 38  1  0
 38 39  1  0
 39 40  1  0
 40 41  1  0
 40 42  1  0
 25 43  1  0
 37  2  1  0
 42 39  1  0
 43 14  1  0
 43 22  1  0
 43 23  1  0
 35 31  1  0
 38 36  1  0
 42 36  1  0
  1 44  1  0
  1 45  1  0
  3 46  1  0
  3 47  1  0
  4 48  1  0
  4 49  1  0
  5 50  1  0
  5 51  1  0
  6 52  1  0
  7 53  1  0
  7 54  1  0
  8 55  1  0
  8 56  1  0
  9 57  1  0
  9 58  1  0
  9 59  1  0
 10 60  1  0
 11 61  1  0
 11 62  1  0
 11 63  1  0
 12 64  1  0
 12 65  1  0
 14 66  1  0
 15 67  1  0
 17 68  1  0
 17 69  1  0
 19 70  1  0
 19 71  1  0
 19 72  1  0
 20 73  1  0
 20 74  1  0
 21 75  1  0
 21 76  1  0
 21 77  1  0
 22 78  1  0
 24 79  1  0
 25 80  1  0
 26 81  1  0
 27 82  1  0
 27 83  1  0
 30 84  1  0
 30 85  1  0
 31 86  1  0
 32 87  1  0
 32 88  1  0
 33 89  1  0
 33 90  1  0
 34 91  1  0
 34 92  1  0
 35 93  1  0
 37 94  1  0
 38 95  1  0
 39 96  1  0
 40 97  1  0
 41 98  1  0
 41 99  1  0
 41100  1  0
 42101  1  0
M  END
