
     RDKit          2D

 95104  0  0  0  0  0  0  0  0999 V2000
  -10.7776   24.6999   13.0468 C   0  0  0  0  0  0  0  0  0  0  0  0
   -9.5014   25.2488   13.6128 C   0  0  0  0  0  0  0  0  0  0  0  0
   -8.2186   24.4902   13.4437 C   0  0  0  0  0  0  0  0  0  0  0  0
   -7.7407   25.0725   12.1466 C   0  0  0  0  0  0  0  0  0  0  0  0
   -8.5569   26.1198   11.4487 C   0  0  0  0  0  0  0  0  0  0  0  0
   -6.4465   24.6076   11.5473 C   0  0  0  0  0  0  0  0  0  0  0  0
   -5.1524   24.1427   10.9481 C   0  0  0  0  0  0  0  0  0  0  0  0
   -5.1201   24.9886    9.7097 C   0  0  0  0  0  0  0  0  0  0  0  0
   -3.9708   24.8735    8.7527 C   0  0  0  0  0  0  0  0  0  0  0  0
   -6.2370   25.9495    9.4284 C   0  0  0  0  0  0  0  0  0  0  0  0
   -7.4713   26.8017    9.4168 C   0  0  0  0  0  0  0  0  0  0  0  0
   -7.4389   27.6475    8.1784 C   0  0  0  0  0  0  0  0  0  0  0  0
   -6.1846   27.3181    7.4247 O   0  0  0  0  0  0  0  0  0  0  0  0
   -5.4418   26.2687    8.1972 C   0  0  0  0  0  0  0  0  0  0  0  0
   -4.1333   25.6474    7.8071 O   0  0  0  0  0  0  0  0  0  0  0  0
   -3.4511   26.0693    6.5396 O   0  0  0  0  0  0  0  0  0  0  0  0
   -2.1427   25.4481    6.1495 N   0  0  0  0  0  0  0  0  0  0  0  0
   -1.4605   25.8700    4.8820 C   0  0  0  0  0  0  0  0  0  0  0  0
   -2.7160   26.6890    4.9383 C   0  0  0  0  0  0  0  0  0  0  0  0
   -3.9882   27.0702    5.6357 C   0  0  0  0  0  0  0  0  0  0  0  0
   -5.2603   27.4513    6.3330 O   0  0  0  0  0  0  0  0  0  0  0  0
   -3.3421   27.7322    4.0609 C   0  0  0  0  0  0  0  0  0  0  0  0
   -4.4590   28.6931    3.7796 C   0  0  0  0  0  0  0  0  0  0  0  0
   -5.5760   29.6540    3.4984 C   0  0  0  0  0  0  0  0  0  0  0  0
   -6.6929   30.6149    3.2170 O   0  0  0  0  0  0  0  0  0  0  0  0
   -2.9723   28.3884    2.7638 Se  0  0  0  0  0  2  0  0  0  0  0  0
   -1.8229   28.2733    1.8068 C   0  0  0  0  0  0  0  0  0  0  0  0
   -0.5675   27.4543    1.7504 C   0  0  0  0  0  0  0  0  0  0  0  0
    0.0587   26.4112    2.6278 C   0  0  0  0  0  0  0  0  0  0  0  0
    1.0485   26.5205    1.5062 C   0  0  0  0  0  0  0  0  0  0  0  0
    2.3442   26.0482    0.9161 C   0  0  0  0  0  0  0  0  0  0  0  0
    3.4110   26.0577   -0.1383 O   0  0  0  0  0  0  0  0  0  0  0  0
    3.5342   25.1441    1.0449 C   0  0  0  0  0  0  0  0  0  0  0  0
    4.2408   24.0954    1.8518 C   0  0  0  0  0  0  0  0  0  0  0  0
    4.2396   23.2351    3.0804 C   0  0  0  0  0  0  0  0  0  0  0  0
    3.5309   22.8361    4.3410 C   0  0  0  0  0  0  0  0  0  0  0  0
    2.3399   23.0253    5.2329 C   0  0  0  0  0  0  0  0  0  0  0  0
    1.0446   23.7425    5.4733 C   0  0  0  0  0  0  0  0  0  0  0  0
    0.0563   24.7601    4.9857 C   0  0  0  0  0  0  0  0  0  0  0  0
   -0.6291   25.3910    4.7543 C   0  0  0  0  0  0  0  0  0  0  0  0
   -0.3112   25.7549    3.9250 C   0  0  0  0  0  0  0  0  0  0  0  0
   -6.6761   27.1209    8.1856 C   0  0  0  0  0  0  0  0  0  0  0  0
   -5.6303   23.5603   12.2452 C   0  0  0  0  0  0  0  0  0  0  0  0
   -6.9245   24.0253   12.8444 C   0  0  0  0  0  0  0  0  0  0  0  0
  -12.0605   25.4586   13.2160 H   0  0  0  0  0  0  0  0  0  0  0  0
  -10.7708   23.3924   12.3117 H   0  0  0  0  0  0  0  0  0  0  0  0
   -9.6377   26.2057   14.1243 H   0  0  0  0  0  0  0  0  0  0  0  0
   -8.2510   23.6443   14.6820 H   0  0  0  0  0  0  0  0  0  0  0  0
   -9.3731   27.1670   10.7508 H   0  0  0  0  0  0  0  0  0  0  0  0
   -9.3631   26.1733   12.1855 H   0  0  0  0  0  0  0  0  0  0  0  0
   -7.5429   26.1744   10.3447 H   0  0  0  0  0  0  0  0  0  0  0  0
   -3.8695   23.3840   10.7789 H   0  0  0  0  0  0  0  0  0  0  0  0
   -2.8539   23.9126    9.0340 H   0  0  0  0  0  0  0  0  0  0  0  0
   -3.8689   25.2794    8.0742 H   0  0  0  0  0  0  0  0  0  0  0  0
   -6.7987   25.4294   10.7184 H   0  0  0  0  0  0  0  0  0  0  0  0
   -8.5488   26.8071   10.4603 H   0  0  0  0  0  0  0  0  0  0  0  0
   -8.7435   28.1769    8.6959 H   0  0  0  0  0  0  0  0  0  0  0  0
   -7.6794   28.6041    7.0483 H   0  0  0  0  0  0  0  0  0  0  0  0
   -1.6613   24.4268    7.1369 H   0  0  0  0  0  0  0  0  0  0  0  0
   -0.8145   24.8251    5.7426 H   0  0  0  0  0  0  0  0  0  0  0  0
   -3.3589   26.2339    6.2148 H   0  0  0  0  0  0  0  0  0  0  0  0
   -4.1547   26.2976    6.9106 H   0  0  0  0  0  0  0  0  0  0  0  0
   -4.4510   28.0832    4.6309 H   0  0  0  0  0  0  0  0  0  0  0  0
   -6.1626   28.4887    5.7332 H   0  0  0  0  0  0  0  0  0  0  0  0
   -4.5506   27.9557    4.9209 H   0  0  0  0  0  0  0  0  0  0  0  0
   -5.1417   28.2706    5.0467 H   0  0  0  0  0  0  0  0  0  0  0  0
   -3.7764   29.1155    2.5126 H   0  0  0  0  0  0  0  0  0  0  0  0
   -4.8932   30.0767    2.2314 H   0  0  0  0  0  0  0  0  0  0  0  0
   -6.2588   29.2313    4.7653 H   0  0  0  0  0  0  0  0  0  0  0  0
   -6.6605   31.4607    1.9787 H   0  0  0  0  0  0  0  0  0  0  0  0
   -1.2819   28.8092    0.5145 H   0  0  0  0  0  0  0  0  0  0  0  0
   -2.7252   29.3107    1.2070 H   0  0  0  0  0  0  0  0  0  0  0  0
    0.4113   27.5770    0.6205 H   0  0  0  0  0  0  0  0  0  0  0  0
   -0.3759   28.2182    0.4738 H   0  0  0  0  0  0  0  0  0  0  0  0
    0.2922   27.1513    1.3441 H   0  0  0  0  0  0  0  0  0  0  0  0
    0.3561   27.5686    0.6863 H   0  0  0  0  0  0  0  0  0  0  0  0
    1.1389   27.3380    0.2517 H   0  0  0  0  0  0  0  0  0  0  0  0
    2.0107   27.0336   -0.1645 H   0  0  0  0  0  0  0  0  0  0  0  0
    4.7101   24.9829    0.1278 H   0  0  0  0  0  0  0  0  0  0  0  0
    5.1701   24.2756    0.6881 H   0  0  0  0  0  0  0  0  0  0  0  0
    5.5203   23.3276    1.6989 H   0  0  0  0  0  0  0  0  0  0  0  0
    5.5196   22.8276    2.4130 H   0  0  0  0  0  0  0  0  0  0  0  0
    5.1671   22.2023    3.6489 H   0  0  0  0  0  0  0  0  0  0  0  0
    4.7553   21.9705    4.3814 H   0  0  0  0  0  0  0  0  0  0  0  0
    3.8121   21.8663    5.4502 H   0  0  0  0  0  0  0  0  0  0  0  0
    3.1199   21.9763    5.9686 H   0  0  0  0  0  0  0  0  0  0  0  0
    1.8853   22.4264    6.5309 H   0  0  0  0  0  0  0  0  0  0  0  0
    1.1326   22.8432    6.6706 H   0  0  0  0  0  0  0  0  0  0  0  0
   -0.0014   23.7047    6.5478 H   0  0  0  0  0  0  0  0  0  0  0  0
   -0.6817   24.3875    6.2373 H   0  0  0  0  0  0  0  0  0  0  0  0
   -1.2766   24.7150    6.3504 H   0  0  0  0  0  0  0  0  0  0  0  0
   -2.4476   26.4020    5.0859 H   0  0  0  0  0  0  0  0  0  0  0  0
   -6.4171   27.8460    6.8983 H   0  0  0  0  0  0  0  0  0  0  0  0
   -7.5947   28.1553    7.6060 H   0  0  0  0  0  0  0  0  0  0  0  0
   -4.8141   22.5131   12.9430 H   0  0  0  0  0  0  0  0  0  0  0  0
  1  2  2  3
  2  3  1  0
  3  4  1  0
  4  5  1  0
  4  6  1  0
  6  7  1  0
  7  8  1  0
  8  9  2  3
  8 10  1  0
 10 11  1  0
 11 12  1  0
 12 13  1  0
 13 14  1  0
 14 15  1  0
 15 16  1  0
 16 17  1  0
 17 18  1  0
 18 19  1  0
 19 20  1  0
 20 21  1  0
 19 22  1  0
 22 23  1  0
 23 24  1  0
 24 25  1  0
 22 26  1  0
 26 27  1  0
 27 28  1  0
 28 29  1  0
 29 30  1  0
 30 31  1  0
 31 32  1  0
 32 33  1  0
 33 34  1  0
 34 35  1  0
 35 36  1  0
 36 37  1  0
 37 38  1  0
 38 39  1  0
 39 40  1  0
 40 41  1  0
 14 42  1  0
  7 43  1  0
 43 44  1  0
 44  3  1  0
 44  4  1  0
 43  6  1  0
 44  6  1  0
 14 10  1  0
 41 18  1  0
 42 11  1  0
 41 29  1  0
 33 31  1  0
 41 39  1  0
  1 45  1  0
  1 46  1  0
  2 47  1  0
  3 48  1  0
  5 49  1  0
  5 50  1  0
  5 51  1  0
  7 52  1  0
  9 53  1  0
  9 54  1  0
 10 55  1  0
 11 56  1  0
 12 57  1  0
 12 58  1  0
 17 59  1  0
 18 60  1  0
 19 61  1  0
 20 62  1  0
 20 63  1  0
 21 64  1  0
 22 65  1  0
 23 66  1  0
 23 67  1  0
 24 68  1  0
 24 69  1  0
 25 70  1  0
 27 71  1  0
 27 72  1  0
 28 73  1  0
 28 74  1  0
 29 75  1  0
 30 76  1  0
 30 77  1  0
 31 78  1  0
 33 79  1  0
 34 80  1  0
 34 81  1  0
 35 82  1  0
 35 83  1  0
 36 84  1  0
 36 85  1  0
 37 86  1  0
 37 87  1  0
 38 88  1  0
 38 89  1  0
 39 90  1  0
 40 91  1  0
 40 92  1  0
 42 93  1  0
 42 94  1  0
 43 95  1  0
M  END
