
     RDKit          2D

 40 40  0  0  0  0  0  0  0  0999 V2000
   -3.8202   22.0113    4.3120 C   0  0  0  0  0  0  0  0  0  0  0  0
   -2.9585   23.2353    4.2148 C   0  0  0  0  0  0  0  0  0  0  0  0
   -2.0968   24.4592    4.1175 C   0  0  0  0  0  0  0  0  0  0  0  0
   -1.5929   24.9175    2.7811 C   0  0  0  0  0  0  0  0  0  0  0  0
   -1.0891   25.3757    1.4446 C   0  0  0  0  0  0  0  0  0  0  0  0
   -1.4469   24.6100    0.2054 C   0  0  0  0  0  0  0  0  0  0  0  0
   -0.7326   25.4335   -0.8249 C   0  0  0  0  0  0  0  0  0  0  0  0
   -1.5136   24.2227   -1.2422 C   0  0  0  0  0  0  0  0  0  0  0  0
   -2.3752   22.9988   -1.1450 F   0  0  0  0  0  0  0  0  0  0  0  0
   -1.2809   24.2604   -2.7235 F   0  0  0  0  0  0  0  0  0  0  0  0
   -1.7389   25.2249    5.3568 C   0  0  0  0  0  0  0  0  0  0  0  0
   -1.3811   25.9906    6.5960 C   0  0  0  0  0  0  0  0  0  0  0  0
   -1.0232   26.7562    7.8353 C   0  0  0  0  0  0  0  0  0  0  0  0
   -0.6654   27.5219    9.0745 C   0  0  0  0  0  0  0  0  0  0  0  0
    0.1247   28.4920    8.2470 C   0  0  0  0  0  0  0  0  0  0  0  0
   -0.3075   28.2876   10.3137 C   0  0  0  0  0  0  0  0  0  0  0  0
   -1.1744   29.4233   10.7702 C   0  0  0  0  0  0  0  0  0  0  0  0
    0.9175   27.9175   11.0963 S   0  0  0  0  0  0  0  0  0  0  0  0
   -4.6819   20.7874    4.4092 H   0  0  0  0  0  0  0  0  0  0  0  0
   -3.7370   21.8346    2.8248 H   0  0  0  0  0  0  0  0  0  0  0  0
   -3.9035   22.1881    5.7992 H   0  0  0  0  0  0  0  0  0  0  0  0
   -3.0427   23.4127    5.7019 H   0  0  0  0  0  0  0  0  0  0  0  0
   -2.8743   23.0579    2.7277 H   0  0  0  0  0  0  0  0  0  0  0  0
   -0.2274   26.5996    1.3474 H   0  0  0  0  0  0  0  0  0  0  0  0
   -2.2855   23.5206    0.8054 H   0  0  0  0  0  0  0  0  0  0  0  0
   -0.2288   25.8918   -2.1614 H   0  0  0  0  0  0  0  0  0  0  0  0
   -0.1267   26.4852    0.0564 H   0  0  0  0  0  0  0  0  0  0  0  0
   -2.2973   24.1184    6.2017 H   0  0  0  0  0  0  0  0  0  0  0  0
   -1.1805   26.3314    4.5118 H   0  0  0  0  0  0  0  0  0  0  0  0
   -0.5925   26.9616    5.7683 H   0  0  0  0  0  0  0  0  0  0  0  0
   -2.1697   25.0195    7.4238 H   0  0  0  0  0  0  0  0  0  0  0  0
   -1.8153   25.7875    8.6624 H   0  0  0  0  0  0  0  0  0  0  0  0
   -0.5848   27.2688    7.2612 H   0  0  0  0  0  0  0  0  0  0  0  0
   -1.4554   26.5518    9.9020 H   0  0  0  0  0  0  0  0  0  0  0  0
    0.9148   29.4621    7.4194 H   0  0  0  0  0  0  0  0  0  0  0  0
   -0.2937   28.3455    7.4801 H   0  0  0  0  0  0  0  0  0  0  0  0
    0.6774   28.8598    8.6881 H   0  0  0  0  0  0  0  0  0  0  0  0
   -2.0414   30.5590   11.2268 H   0  0  0  0  0  0  0  0  0  0  0  0
   -1.8246   29.4700    9.4193 H   0  0  0  0  0  0  0  0  0  0  0  0
   -0.8877   29.4722   11.5124 H   0  0  0  0  0  0  0  0  0  0  0  0
  1  2  1  0
  2  3  1  0
  3  4  2  0
  4  5  2  0
  5  6  1  0
  6  7  1  0
  7  8  1  0
  8  9  1  0
  8 10  1  0
  3 11  1  0
 11 12  1  0
 12 13  1  0
 13 14  1  0
 14 15  1  0
 14 16  1  0
 16 17  1  0
 16 18  2  0
  8  6  1  0
  1 19  1  0
  1 20  1  0
  1 21  1  0
  2 22  1  0
  2 23  1  0
  5 24  1  0
  6 25  1  0
  7 26  1  0
  7 27  1  0
 11 28  1  0
 11 29  1  0
 12 30  1  0
 12 31  1  0
 13 32  1  0
 13 33  1  0
 14 34  1  0
 15 35  1  0
 15 36  1  0
 15 37  1  0
 17 38  1  0
 17 39  1  0
 17 40  1  0
M  END
