
     RDKit          2D

 52 53  0  0  0  0  0  0  0  0999 V2000
   -8.5119   27.0031    8.4052 C   0  0  0  0  0  0  0  0  0  0  0  0
   -7.2461   26.5697    7.7273 C   0  0  0  0  0  0  0  0  0  0  0  0
   -5.9801   26.1363    7.0494 C   0  0  0  0  0  0  0  0  0  0  0  0
   -4.7142   25.7028    6.3714 C   0  0  0  0  0  0  0  0  0  0  0  0
   -3.4483   25.2694    5.6935 C   0  0  0  0  0  0  0  0  0  0  0  0
   -3.4525   24.0020    6.4957 O   0  0  0  0  0  0  0  0  0  0  0  0
   -2.1823   24.8360    5.0156 C   0  0  0  0  0  0  0  0  0  0  0  0
   -1.9662   23.5130    5.6886 C   0  0  0  0  0  0  0  0  0  0  0  0
   -0.9941   23.9954    4.6532 C   0  0  0  0  0  0  0  0  0  0  0  0
   -0.1832   22.7462    4.8325 C   0  0  0  0  0  0  0  0  0  0  0  0
    1.0641   22.5394    4.0255 C   0  0  0  0  0  0  0  0  0  0  0  0
    1.5007   23.5818    3.0390 C   0  0  0  0  0  0  0  0  0  0  0  0
    2.3172   24.2738    1.9881 O   0  0  0  0  0  0  0  0  0  0  0  0
    3.5633   23.6269    1.4599 C   0  0  0  0  0  0  0  0  0  0  0  0
    0.6898   24.8309    2.8597 O   0  0  0  0  0  0  0  0  0  0  0  0
   -0.5576   25.0377    3.6668 C   0  0  0  0  0  0  0  0  0  0  0  0
   -1.8036   25.6846    4.1949 C   0  0  0  0  0  0  0  0  0  0  0  0
   -3.0496   26.3314    4.7231 C   0  0  0  0  0  0  0  0  0  0  0  0
   -3.4791   27.6702    4.2005 N   0  0  0  0  0  0  0  0  0  0  0  0
   -1.5795   26.8575    3.2872 C   0  0  0  0  0  0  0  0  0  0  0  0
   -1.3554   28.0304    2.3794 C   0  0  0  0  0  0  0  0  0  0  0  0
   -9.7779   27.4365    9.0832 H   0  0  0  0  0  0  0  0  0  0  0  0
   -8.5112   25.7400    9.2143 H   0  0  0  0  0  0  0  0  0  0  0  0
   -8.5128   28.2662    7.5962 H   0  0  0  0  0  0  0  0  0  0  0  0
   -7.2414   27.8373    6.9255 H   0  0  0  0  0  0  0  0  0  0  0  0
   -7.2506   25.3020    8.5292 H   0  0  0  0  0  0  0  0  0  0  0  0
   -5.8407   27.4990    6.4383 H   0  0  0  0  0  0  0  0  0  0  0  0
   -6.1195   24.7734    7.6605 H   0  0  0  0  0  0  0  0  0  0  0  0
   -4.8728   24.4976    7.2504 H   0  0  0  0  0  0  0  0  0  0  0  0
   -4.7099   26.9703    5.5692 H   0  0  0  0  0  0  0  0  0  0  0  0
   -3.7504   26.6040    5.0792 H   0  0  0  0  0  0  0  0  0  0  0  0
   -4.4661   23.5853    7.5200 H   0  0  0  0  0  0  0  0  0  0  0  0
   -2.2273   25.5238    4.6151 H   0  0  0  0  0  0  0  0  0  0  0  0
   -1.4751   22.1774    6.1629 H   0  0  0  0  0  0  0  0  0  0  0  0
   -3.0178   23.1638    6.6997 H   0  0  0  0  0  0  0  0  0  0  0  0
    0.2463   21.4074    5.3552 H   0  0  0  0  0  0  0  0  0  0  0  0
   -1.1965   22.3299    5.8571 H   0  0  0  0  0  0  0  0  0  0  0  0
    2.3102   21.8926    3.4972 H   0  0  0  0  0  0  0  0  0  0  0  0
    1.0604   21.2724    4.8284 H   0  0  0  0  0  0  0  0  0  0  0  0
    2.5094   22.4731    2.9808 H   0  0  0  0  0  0  0  0  0  0  0  0
    4.8094   22.9801    0.9317 H   0  0  0  0  0  0  0  0  0  0  0  0
    3.8615   24.8578    0.6562 H   0  0  0  0  0  0  0  0  0  0  0  0
    3.4192   22.3263    2.1933 H   0  0  0  0  0  0  0  0  0  0  0  0
   -0.3995   26.2425    2.7871 H   0  0  0  0  0  0  0  0  0  0  0  0
   -2.3225   24.7030    5.2036 H   0  0  0  0  0  0  0  0  0  0  0  0
   -4.0760   25.9374    5.7436 H   0  0  0  0  0  0  0  0  0  0  0  0
   -4.7251   28.3170    4.7287 H   0  0  0  0  0  0  0  0  0  0  0  0
   -2.7371   27.7666    3.5764 H   0  0  0  0  0  0  0  0  0  0  0  0
   -0.3126   26.3609    2.6560 H   0  0  0  0  0  0  0  0  0  0  0  0
   -1.1313   29.2034    1.4717 H   0  0  0  0  0  0  0  0  0  0  0  0
    0.0618   27.5904    2.1606 H   0  0  0  0  0  0  0  0  0  0  0  0
   -2.7726   28.4705    2.5982 H   0  0  0  0  0  0  0  0  0  0  0  0
  1  2  1  0
  2  3  1  0
  3  4  1  0
  4  5  1  0
  5  6  1  0
  5  7  1  0
  7  8  1  0
  8  9  1  0
  9 10  1  0
 10 11  1  0
 11 12  1  0
 12 13  1  0
 13 14  1  0
 12 15  1  0
 15 16  1  0
 16 17  1  0
 17 18  1  0
 18 19  2  3
 17 20  1  0
 20 21  1  0
  9  7  1  0
 16  9  1  0
  1 22  1  0
  1 23  1  0
  1 24  1  0
  2 25  1  0
  2 26  1  0
  3 27  1  0
  3 28  1  0
  4 29  1  0
  4 30  1  0
  5 31  1  0
  6 32  1  0
  7 33  1  0
  8 34  1  0
  8 35  1  0
 10 36  1  0
 10 37  1  0
 11 38  1  0
 11 39  1  0
 12 40  1  0
 14 41  1  0
 14 42  1  0
 14 43  1  0
 16 44  1  0
 17 45  1  0
 18 46  1  0
 19 47  1  0
 20 48  1  0
 20 49  1  0
 21 50  1  0
 21 51  1  0
 21 52  1  0
M  END
