
     RDKit          2D

 71 76  0  0  0  0  0  0  0  0999 V2000
   -6.6294   27.9222    8.8370 C   0  0  0  0  0  0  0  0  0  0  0  0
   -5.4605   27.1819    8.2579 C   0  0  0  0  0  0  0  0  0  0  0  0
   -5.2628   26.4720    9.5643 O   0  0  0  0  0  0  0  0  0  0  0  0
   -4.2915   26.4416    7.6787 C   0  0  0  0  0  0  0  0  0  0  0  0
   -3.1225   25.7013    7.0995 C   0  0  0  0  0  0  0  0  0  0  0  0
   -1.9535   24.9610    6.5204 C   0  0  0  0  0  0  0  0  0  0  0  0
   -0.7845   24.2207    5.9412 C   0  0  0  0  0  0  0  0  0  0  0  0
   -0.3556   23.4308    7.1421 C   0  0  0  0  0  0  0  0  0  0  0  0
    0.5716   22.4406    7.7821 C   0  0  0  0  0  0  0  0  0  0  0  0
    1.3440   21.1833    9.4943 C   0  0  0  0  0  0  0  0  0  0  0  0
    2.3328   20.1850   10.0192 C   0  0  0  0  0  0  0  0  0  0  0  0
    2.3597   19.8915   10.7599 Br  0  0  0  0  0  0  0  0  0  0  0  0
    3.4892   19.2303   10.0528 C   0  0  0  0  0  0  0  0  0  0  0  0
    4.6738   18.4343    9.5910 C   0  0  0  0  0  0  0  0  0  0  0  0
    5.7436   17.8930    8.6895 O   0  0  0  0  0  0  0  0  0  0  0  0
    6.5696   17.6718    7.4571 C   0  0  0  0  0  0  0  0  0  0  0  0
    7.0521   17.7973    6.0425 C   0  0  0  0  0  0  0  0  0  0  0  0
    7.1331   18.2543    4.6161 C   0  0  0  0  0  0  0  0  0  0  0  0
    6.8025   18.9879    3.3501 C   0  0  0  0  0  0  0  0  0  0  0  0
    6.1006   19.9093    2.3971 C   0  0  0  0  0  0  0  0  0  0  0  0
    5.1117   20.9076    1.8723 O   0  0  0  0  0  0  0  0  0  0  0  0
    3.9553   21.8624    1.8386 C   0  0  0  0  0  0  0  0  0  0  0  0
    2.7707   22.6584    2.3004 C   0  0  0  0  0  0  0  0  0  0  0  0
    1.7819   23.6567    1.7755 C   0  0  0  0  0  0  0  0  0  0  0  0
    1.7010   23.1997    3.2018 C   0  0  0  0  0  0  0  0  0  0  0  0
    0.6118   24.1913    2.9182 C   0  0  0  0  0  0  0  0  0  0  0  0
    0.8750   23.4209    4.4343 C   0  0  0  0  0  0  0  0  0  0  0  0
    0.3925   23.2954    5.8490 C   0  0  0  0  0  0  0  0  0  0  0  0
    1.3196   22.3051    6.4890 C   0  0  0  0  0  0  0  0  0  0  0  0
    7.9590   18.0331    3.3836 C   0  0  0  0  0  0  0  0  0  0  0  0
   -7.7984   28.6625    9.4162 H   0  0  0  0  0  0  0  0  0  0  0  0
   -6.4007   27.2498   10.1582 H   0  0  0  0  0  0  0  0  0  0  0  0
   -6.9991   28.6798    7.5963 H   0  0  0  0  0  0  0  0  0  0  0  0
   -5.6582   27.8918    6.9514 H   0  0  0  0  0  0  0  0  0  0  0  0
   -6.0800   26.6327   10.8119 H   0  0  0  0  0  0  0  0  0  0  0  0
   -4.2677   27.3888    6.5159 H   0  0  0  0  0  0  0  0  0  0  0  0
   -4.3153   25.4943    8.8415 H   0  0  0  0  0  0  0  0  0  0  0  0
   -2.8931   25.0297    8.4210 H   0  0  0  0  0  0  0  0  0  0  0  0
   -3.3519   26.3729    5.7781 H   0  0  0  0  0  0  0  0  0  0  0  0
   -1.8648   24.3889    7.9042 H   0  0  0  0  0  0  0  0  0  0  0  0
   -2.1864   25.6283    5.1973 H   0  0  0  0  0  0  0  0  0  0  0  0
   -0.9525   24.8526    4.5912 H   0  0  0  0  0  0  0  0  0  0  0  0
   -1.2253   23.7027    8.3336 H   0  0  0  0  0  0  0  0  0  0  0  0
    0.6983   21.8361    9.1491 H   0  0  0  0  0  0  0  0  0  0  0  0
    1.1081   21.0298   10.4373 H   0  0  0  0  0  0  0  0  0  0  0  0
    0.1822   21.9038   10.1116 H   0  0  0  0  0  0  0  0  0  0  0  0
    1.8463   20.3590   10.6262 H   0  0  0  0  0  0  0  0  0  0  0  0
    3.9439   18.4263   11.2348 H   0  0  0  0  0  0  0  0  0  0  0  0
    3.0958   19.2202   10.9548 H   0  0  0  0  0  0  0  0  0  0  0  0
    5.5789   17.4483   10.2684 H   0  0  0  0  0  0  0  0  0  0  0  0
    4.4623   18.0780   11.0326 H   0  0  0  0  0  0  0  0  0  0  0  0
    7.7505   16.7555    7.3315 H   0  0  0  0  0  0  0  0  0  0  0  0
    7.0307   16.8644    8.6342 H   0  0  0  0  0  0  0  0  0  0  0  0
    8.2155   17.0728    5.4328 H   0  0  0  0  0  0  0  0  0  0  0  0
    7.9616   16.8104    6.7124 H   0  0  0  0  0  0  0  0  0  0  0  0
    8.2729   17.2855    4.7251 H   0  0  0  0  0  0  0  0  0  0  0  0
    7.4669   18.9392    2.0061 H   0  0  0  0  0  0  0  0  0  0  0  0
    6.9266   19.6881    1.1647 H   0  0  0  0  0  0  0  0  0  0  0  0
    3.5006   22.6663    0.6567 H   0  0  0  0  0  0  0  0  0  0  0  0
    4.6761   21.7558    0.5274 H   0  0  0  0  0  0  0  0  0  0  0  0
    2.9137   23.0684    0.8646 H   0  0  0  0  0  0  0  0  0  0  0  0
    2.2645   23.7822    0.3608 H   0  0  0  0  0  0  0  0  0  0  0  0
    0.6690   24.6404    1.5664 H   0  0  0  0  0  0  0  0  0  0  0  0
   -0.4774   25.1829    2.6347 H   0  0  0  0  0  0  0  0  0  0  0  0
   -0.0004   24.1871    4.2877 H   0  0  0  0  0  0  0  0  0  0  0  0
    0.9584   24.4372    1.4798 H   0  0  0  0  0  0  0  0  0  0  0  0
   -0.3162   24.2817    4.7343 H   0  0  0  0  0  0  0  0  0  0  0  0
    0.1619   24.3468    3.4941 H   0  0  0  0  0  0  0  0  0  0  0  0
    2.2468   21.3148    7.1291 H   0  0  0  0  0  0  0  0  0  0  0  0
    2.0677   22.1697    5.1959 H   0  0  0  0  0  0  0  0  0  0  0  0
    9.1036   17.3541    2.6915 H   0  0  0  0  0  0  0  0  0  0  0  0
  1  2  1  0
  2  3  1  0
  2  4  1  0
  4  5  1  0
  5  6  1  0
  6  7  1  0
  7  8  1  0
  8  9  1  0
  9 10  1  0
 10 11  1  0
 11 12  1  0
 11 13  1  0
 13 14  1  0
 14 15  1  0
 15 16  1  0
 16 17  1  0
 17 18  1  0
 18 19  1  0
 19 20  1  0
 20 21  1  0
 21 22  1  0
 22 23  1  0
 23 24  1  0
 24 25  1  0
 25 26  1  0
 25 27  1  0
 27 28  1  0
 28 29  1  0
 20 30  1  0
 28  7  1  0
 28  8  1  0
 29  9  1  0
 30 18  1  0
 30 19  1  0
 25 23  1  0
  1 31  1  0
  1 32  1  0
  1 33  1  0
  2 34  1  0
  3 35  1  0
  4 36  1  0
  4 37  1  0
  5 38  1  0
  5 39  1  0
  6 40  1  0
  6 41  1  0
  7 42  1  0
  8 43  1  0
  9 44  1  0
 10 45  1  0
 10 46  1  0
 11 47  1  0
 13 48  1  0
 13 49  1  0
 14 50  1  0
 14 51  1  0
 16 52  1  0
 16 53  1  0
 17 54  1  0
 17 55  1  0
 18 56  1  0
 19 57  1  0
 20 58  1  0
 22 59  1  0
 22 60  1  0
 23 61  1  0
 24 62  1  0
 24 63  1  0
 26 64  1  0
 26 65  1  0
 26 66  1  0
 27 67  1  0
 27 68  1  0
 29 69  1  0
 29 70  1  0
 30 71  1  0
M  END
