
     RDKit          2D

108116  0  0  0  0  0  0  0  0999 V2000
    2.0314   16.7698   14.6700 C   0  0  0  0  0  0  0  0  0  0  0  0
    1.3186   16.6757   13.3535 C   0  0  0  0  0  0  0  0  0  0  0  0
    0.6057   16.5815   12.0372 C   0  0  0  0  0  0  0  0  0  0  0  0
   -0.1071   16.4875   10.7207 C   0  0  0  0  0  0  0  0  0  0  0  0
    0.3780   17.8603   10.3598 C   0  0  0  0  0  0  0  0  0  0  0  0
    1.0908   17.9543   11.6763 C   0  0  0  0  0  0  0  0  0  0  0  0
    1.1545   19.0962   10.7057 C   0  0  0  0  0  0  0  0  0  0  0  0
    2.0124   20.0507   11.4822 C   0  0  0  0  0  0  0  0  0  0  0  0
    2.8703   21.0052   12.2587 C   0  0  0  0  0  0  0  0  0  0  0  0
    3.7281   21.9598   13.0352 O   0  0  0  0  0  0  0  0  0  0  0  0
    0.9203   19.9065    9.4653 C   0  0  0  0  0  0  0  0  0  0  0  0
    0.6861   20.7168    8.2248 C   0  0  0  0  0  0  0  0  0  0  0  0
   -0.1718   19.7623    7.4484 C   0  0  0  0  0  0  0  0  0  0  0  0
    0.7498   21.8586    7.2542 C   0  0  0  0  0  0  0  0  0  0  0  0
    1.4626   21.9527    8.5707 C   0  0  0  0  0  0  0  0  0  0  0  0
    2.0640   23.3210    8.4439 C   0  0  0  0  0  0  0  0  0  0  0  0
    2.6655   24.6892    8.3172 C   0  0  0  0  0  0  0  0  0  0  0  0
    3.2670   26.0575    8.1905 C   0  0  0  0  0  0  0  0  0  0  0  0
    4.0435   27.2934    8.5363 C   0  0  0  0  0  0  0  0  0  0  0  0
    3.9799   26.1516    9.5070 N   0  0  0  0  0  0  0  0  0  0  0  0
    1.8913   24.9124    7.0520 C   0  0  0  0  0  0  0  0  0  0  0  0
    2.3488   26.2989    6.7079 C   0  0  0  0  0  0  0  0  0  0  0  0
    1.3931   25.9228    5.6145 C   0  0  0  0  0  0  0  0  0  0  0  0
    0.4567   24.9297    4.9923 C   0  0  0  0  0  0  0  0  0  0  0  0
    0.8712   26.6005    4.3824 C   0  0  0  0  0  0  0  0  0  0  0  0
    1.0886   27.9351    3.7332 C   0  0  0  0  0  0  0  0  0  0  0  0
    1.9182   29.1448    4.0472 C   0  0  0  0  0  0  0  0  0  0  0  0
    2.8738   29.5209    5.1405 C   0  0  0  0  0  0  0  0  0  0  0  0
    3.3958   28.8432    6.3726 C   0  0  0  0  0  0  0  0  0  0  0  0
    3.1783   27.5086    7.0218 C   0  0  0  0  0  0  0  0  0  0  0  0
    3.4678   26.5408    8.1308 C   0  0  0  0  0  0  0  0  0  0  0  0
    3.7573   25.5731    9.2396 C   0  0  0  0  0  0  0  0  0  0  0  0
    3.0913   30.8556    4.4912 C   0  0  0  0  0  0  0  0  0  0  0  0
    2.1357   30.4795    3.3980 C   0  0  0  0  0  0  0  0  0  0  0  0
    1.1993   29.4864    2.7758 C   0  0  0  0  0  0  0  0  0  0  0  0
    0.7517   30.2671    1.5757 C   0  0  0  0  0  0  0  0  0  0  0  0
   -0.2273   29.6649    0.6117 N   0  0  0  0  0  0  0  0  0  0  0  0
    0.4184   28.2223    2.5703 C   0  0  0  0  0  0  0  0  0  0  0  0
   -0.3625   26.9582    2.3649 C   0  0  0  0  0  0  0  0  0  0  0  0
    1.1651   23.6034    6.9567 C   0  0  0  0  0  0  0  0  0  0  0  0
    0.9583   24.6541    5.9063 C   0  0  0  0  0  0  0  0  0  0  0  0
    1.0917   25.9508    5.1642 O   0  0  0  0  0  0  0  0  0  0  0  0
   -0.0211   23.9453    5.0183 C   0  0  0  0  0  0  0  0  0  0  0  0
   -1.0005   23.2366    4.1302 C   0  0  0  0  0  0  0  0  0  0  0  0
    2.7442   16.8639   15.9865 H   0  0  0  0  0  0  0  0  0  0  0  0
    0.9980   15.8788   15.2933 H   0  0  0  0  0  0  0  0  0  0  0  0
    3.0647   17.6608   14.0468 H   0  0  0  0  0  0  0  0  0  0  0  0
    1.8855   18.0504   13.1566 H   0  0  0  0  0  0  0  0  0  0  0  0
    0.8349   15.3022   13.7137 H   0  0  0  0  0  0  0  0  0  0  0  0
    0.1207   15.2089   12.3979 H   0  0  0  0  0  0  0  0  0  0  0  0
   -0.5922   15.1147   11.0815 H   0  0  0  0  0  0  0  0  0  0  0  0
   -0.8199   16.3934    9.4042 H   0  0  0  0  0  0  0  0  0  0  0  0
   -0.3263   17.7900    9.0373 H   0  0  0  0  0  0  0  0  0  0  0  0
    1.9049   18.4005   12.8546 H   0  0  0  0  0  0  0  0  0  0  0  0
    2.2049   19.1824   12.6901 H   0  0  0  0  0  0  0  0  0  0  0  0
    2.1340   21.2442   10.5818 H   0  0  0  0  0  0  0  0  0  0  0  0
    2.7785   21.9988   11.1387 H   0  0  0  0  0  0  0  0  0  0  0  0
    2.9619   20.0117   13.3787 H   0  0  0  0  0  0  0  0  0  0  0  0
    4.0752   23.2986   12.4547 H   0  0  0  0  0  0  0  0  0  0  0  0
    1.7494   21.0189   10.0354 H   0  0  0  0  0  0  0  0  0  0  0  0
    0.0912   18.7941    8.8951 H   0  0  0  0  0  0  0  0  0  0  0  0
   -1.0296   18.8078    6.6718 H   0  0  0  0  0  0  0  0  0  0  0  0
   -0.2946   18.5693    8.3492 H   0  0  0  0  0  0  0  0  0  0  0  0
   -0.3631   20.6301    6.2398 H   0  0  0  0  0  0  0  0  0  0  0  0
   -0.0539   21.4581    6.0526 H   0  0  0  0  0  0  0  0  0  0  0  0
    0.7984   22.9867    6.2668 H   0  0  0  0  0  0  0  0  0  0  0  0
    2.1208   21.9029    9.9176 H   0  0  0  0  0  0  0  0  0  0  0  0
    2.6828   23.1748    9.8025 H   0  0  0  0  0  0  0  0  0  0  0  0
    1.3766   23.2993    7.1109 H   0  0  0  0  0  0  0  0  0  0  0  0
    3.4398   24.4661    9.5825 H   0  0  0  0  0  0  0  0  0  0  0  0
    2.9474   26.7472    6.8974 H   0  0  0  0  0  0  0  0  0  0  0  0
    3.9122   28.2332    7.3747 H   0  0  0  0  0  0  0  0  0  0  0  0
    4.9014   28.2479    9.3128 H   0  0  0  0  0  0  0  0  0  0  0  0
    4.3547   25.5467   10.8275 H   0  0  0  0  0  0  0  0  0  0  0  0
    2.9811   25.7960    7.9717 H   0  0  0  0  0  0  0  0  0  0  0  0
    0.9662   24.5378    6.0011 H   0  0  0  0  0  0  0  0  0  0  0  0
   -0.5218   24.2004    4.1203 H   0  0  0  0  0  0  0  0  0  0  0  0
    0.5111   23.7505    5.9177 H   0  0  0  0  0  0  0  0  0  0  0  0
    0.1673   25.8975    3.8835 H   0  0  0  0  0  0  0  0  0  0  0  0
   -0.0449   26.4138    3.2094 H   0  0  0  0  0  0  0  0  0  0  0  0
   -0.0545   25.5745    3.7992 H   0  0  0  0  0  0  0  0  0  0  0  0
    0.3934   28.3233    2.4620 H   0  0  0  0  0  0  0  0  0  0  0  0
    0.1211   27.0865    2.9627 H   0  0  0  0  0  0  0  0  0  0  0  0
    3.8400   30.3792    5.9021 H   0  0  0  0  0  0  0  0  0  0  0  0
    4.3619   29.7014    7.1343 H   0  0  0  0  0  0  0  0  0  0  0  0
    4.1458   28.3573    7.7923 H   0  0  0  0  0  0  0  0  0  0  0  0
    4.3041   27.7396    8.4676 H   0  0  0  0  0  0  0  0  0  0  0  0
    2.5759   25.4361    7.6468 H   0  0  0  0  0  0  0  0  0  0  0  0
    4.0467   24.6053   10.3485 H   0  0  0  0  0  0  0  0  0  0  0  0
    4.8515   26.2355   10.0231 H   0  0  0  0  0  0  0  0  0  0  0  0
    2.8031   24.4423    8.9928 H   0  0  0  0  0  0  0  0  0  0  0  0
    3.9208   32.0653    4.8053 H   0  0  0  0  0  0  0  0  0  0  0  0
    2.0983   31.6712    2.4879 H   0  0  0  0  0  0  0  0  0  0  0  0
    1.2829   31.6498    1.3395 H   0  0  0  0  0  0  0  0  0  0  0  0
   -0.6750   30.4455   -0.5884 H   0  0  0  0  0  0  0  0  0  0  0  0
   -0.1570   28.7835    1.3039 H   0  0  0  0  0  0  0  0  0  0  0  0
    0.7877   27.3718    3.7495 H   0  0  0  0  0  0  0  0  0  0  0  0
   -1.1433   25.6940    2.1595 H   0  0  0  0  0  0  0  0  0  0  0  0
   -0.9545   27.5278    1.1099 H   0  0  0  0  0  0  0  0  0  0  0  0
    0.1299   26.2387    3.5855 H   0  0  0  0  0  0  0  0  0  0  0  0
    1.4708   22.6531    8.0763 H   0  0  0  0  0  0  0  0  0  0  0  0
    0.3094   22.4309    6.5787 H   0  0  0  0  0  0  0  0  0  0  0  0
    0.2500   26.0055    3.9238 H   0  0  0  0  0  0  0  0  0  0  0  0
   -0.4986   25.0134    4.0795 H   0  0  0  0  0  0  0  0  0  0  0  0
    0.1057   22.5910    5.6506 H   0  0  0  0  0  0  0  0  0  0  0  0
   -1.9798   22.5279    3.2423 H   0  0  0  0  0  0  0  0  0  0  0  0
   -0.9747   22.0507    5.0484 H   0  0  0  0  0  0  0  0  0  0  0  0
   -1.0261   24.4225    3.2122 H   0  0  0  0  0  0  0  0  0  0  0  0
  1  2  1  0
  2  3  1  0
  3  4  1  0
  4  5  1  0
  5  6  1  0
  6  7  1  0
  7  8  1  0
  8  9  1  0
  9 10  1  0
  7 11  1  0
 11 12  1  0
 12 13  1  0
 12 14  1  0
 14 15  1  0
 15 16  1  0
 16 17  1  0
 17 18  1  0
 18 19  1  0
 19 20  1  0
 17 21  1  0
 21 22  1  0
 22 23  1  0
 23 24  1  0
 23 25  1  0
 25 26  1  0
 26 27  1  0
 27 28  1  0
 28 29  1  0
 29 30  1  0
 30 31  1  0
 31 32  1  0
 29 33  1  0
 33 34  1  0
 34 35  1  0
 35 36  1  0
 36 37  2  3
 35 38  1  0
 38 39  1  0
 21 40  1  0
 40 41  1  0
 41 42  1  0
 41 43  1  0
 43 44  1  0
  6  3  1  0
 15 12  1  0
 20 18  1  0
 41 21  1  0
  7  5  1  0
 30 22  1  0
 34 27  1  0
 35 27  1  0
 33 28  1  0
  1 45  1  0
  1 46  1  0
  1 47  1  0
  2 48  1  0
  2 49  1  0
  3 50  1  0
  4 51  1  0
  4 52  1  0
  5 53  1  0
  6 54  1  0
  8 55  1  0
  8 56  1  0
  9 57  1  0
  9 58  1  0
 10 59  1  0
 11 60  1  0
 11 61  1  0
 13 62  1  0
 13 63  1  0
 13 64  1  0
 14 65  1  0
 14 66  1  0
 15 67  1  0
 16 68  1  0
 16 69  1  0
 17 70  1  0
 18 71  1  0
 19 72  1  0
 19 73  1  0
 20 74  1  0
 22 75  1  0
 23 76  1  0
 24 77  1  0
 24 78  1  0
 24 79  1  0
 25 80  1  0
 25 81  1  0
 26 82  1  0
 26 83  1  0
 28 84  1  0
 29 85  1  0
 30 86  1  0
 31 87  1  0
 31 88  1  0
 32 89  1  0
 32 90  1  0
 32 91  1  0
 33 92  1  0
 34 93  1  0
 36 94  1  0
 37 95  1  0
 38 96  1  0
 38 97  1  0
 39 98  1  0
 39 99  1  0
 39100  1  0
 40101  1  0
 40102  1  0
 42103  1  0
 43104  1  0
 43105  1  0
 44106  1  0
 44107  1  0
 44108  1  0
M  END
