
     RDKit          2D

 47 47  0  0  0  0  0  0  0  0999 V2000
    0.6861   21.6705    7.0434 C   0  0  0  0  0  0  0  0  0  0  0  0
   -0.6909   22.2287    7.2494 C   0  0  0  0  0  0  0  0  0  0  0  0
   -2.0678   22.7869    7.4554 C   0  0  0  0  0  0  0  0  0  0  0  0
   -3.4448   23.3451    7.6614 O   0  0  0  0  0  0  0  0  0  0  0  0
   -4.4218   22.6249    8.5428 C   0  0  0  0  0  0  0  0  0  0  0  0
   -5.5595   23.2778    7.8151 C   0  0  0  0  0  0  0  0  0  0  0  0
   -3.2842   21.9721    9.2706 C   0  0  0  0  0  0  0  0  0  0  0  0
   -1.7347   23.9405    6.5563 O   0  0  0  0  0  0  0  0  0  0  0  0
   -2.7606   25.0006    6.2852 C   0  0  0  0  0  0  0  0  0  0  0  0
   -1.8979   25.5556    5.1908 O   0  0  0  0  0  0  0  0  0  0  0  0
   -2.3551   26.7512    4.4088 C   0  0  0  0  0  0  0  0  0  0  0  0
   -1.0541   26.5770    3.6828 C   0  0  0  0  0  0  0  0  0  0  0  0
   -0.9592   27.6491    2.6379 C   0  0  0  0  0  0  0  0  0  0  0  0
   -2.2015   28.4859    2.7182 C   0  0  0  0  0  0  0  0  0  0  0  0
   -3.0642   27.9309    3.8126 C   0  0  0  0  0  0  0  0  0  0  0  0
   -3.7866   26.0607    6.0141 C   0  0  0  0  0  0  0  0  0  0  0  0
   -4.7642   25.3398    6.8940 O   0  0  0  0  0  0  0  0  0  0  0  0
   -4.8125   27.1210    5.7429 C   0  0  0  0  0  0  0  0  0  0  0  0
   -5.8385   28.1811    5.4718 O   0  0  0  0  0  0  0  0  0  0  0  0
    2.0631   21.1124    6.8373 H   0  0  0  0  0  0  0  0  0  0  0  0
    1.0170   22.8206    6.1390 H   0  0  0  0  0  0  0  0  0  0  0  0
    0.3552   20.5205    7.9477 H   0  0  0  0  0  0  0  0  0  0  0  0
   -0.3573   23.3830    6.3513 H   0  0  0  0  0  0  0  0  0  0  0  0
   -1.0244   21.0745    8.1475 H   0  0  0  0  0  0  0  0  0  0  0  0
   -2.1543   22.1423    7.9163 H   0  0  0  0  0  0  0  0  0  0  0  0
   -5.3988   21.9048    9.4242 H   0  0  0  0  0  0  0  0  0  0  0  0
   -6.6971   23.9307    7.0873 H   0  0  0  0  0  0  0  0  0  0  0  0
   -6.5368   22.5431    8.6839 H   0  0  0  0  0  0  0  0  0  0  0  0
   -4.4506   23.9274    7.0414 H   0  0  0  0  0  0  0  0  0  0  0  0
   -2.1466   21.3193    9.9983 H   0  0  0  0  0  0  0  0  0  0  0  0
   -4.2617   21.2359   10.1381 H   0  0  0  0  0  0  0  0  0  0  0  0
   -2.5825   22.2130    8.9788 H   0  0  0  0  0  0  0  0  0  0  0  0
   -3.4919   24.3206    7.4045 H   0  0  0  0  0  0  0  0  0  0  0  0
   -3.6230   26.8215    5.2071 H   0  0  0  0  0  0  0  0  0  0  0  0
    0.2856   26.1606    3.1520 H   0  0  0  0  0  0  0  0  0  0  0  0
   -0.8689   25.4179    4.6166 H   0  0  0  0  0  0  0  0  0  0  0  0
   -0.5884   28.5873    1.5278 H   0  0  0  0  0  0  0  0  0  0  0  0
    0.3607   27.0086    2.3256 H   0  0  0  0  0  0  0  0  0  0  0  0
   -3.3120   29.4822    2.5629 H   0  0  0  0  0  0  0  0  0  0  0  0
   -1.5710   29.2491    1.5913 H   0  0  0  0  0  0  0  0  0  0  0  0
   -4.2140   27.7513    4.7591 H   0  0  0  0  0  0  0  0  0  0  0  0
   -3.9944   29.0432    3.4285 H   0  0  0  0  0  0  0  0  0  0  0  0
   -3.2416   27.1139    5.0954 H   0  0  0  0  0  0  0  0  0  0  0  0
   -6.1719   25.7525    7.2071 H   0  0  0  0  0  0  0  0  0  0  0  0
   -5.9069   26.5362    6.5858 H   0  0  0  0  0  0  0  0  0  0  0  0
   -3.9683   27.9641    4.8340 H   0  0  0  0  0  0  0  0  0  0  0  0
   -7.1975   28.0877    6.0997 H   0  0  0  0  0  0  0  0  0  0  0  0
  1  2  1  0
  2  3  1  0
  3  4  1  0
  4  5  1  0
  5  6  1  0
  5  7  1  0
  3  8  1  0
  8  9  1  0
  9 10  1  0
 10 11  1  0
 11 12  1  0
 12 13  1  0
 13 14  1  0
 14 15  1  0
  9 16  1  0
 16 17  1  0
 16 18  1  0
 18 19  1  0
 15 11  1  0
  1 20  1  0
  1 21  1  0
  1 22  1  0
  2 23  1  0
  2 24  1  0
  3 25  1  0
  5 26  1  0
  6 27  1  0
  6 28  1  0
  6 29  1  0
  7 30  1  0
  7 31  1  0
  7 32  1  0
  9 33  1  0
 11 34  1  0
 12 35  1  0
 12 36  1  0
 13 37  1  0
 13 38  1  0
 14 39  1  0
 14 40  1  0
 15 41  1  0
 15 42  1  0
 16 43  1  0
 17 44  1  0
 18 45  1  0
 18 46  1  0
 19 47  1  0
M  END
