
     RDKit          2D

108115  0  0  0  0  0  0  0  0999 V2000
    4.2943   24.9857    4.0223 C   0  0  0  0  0  0  0  0  0  0  0  0
    2.8954   24.4533    4.1208 C   0  0  0  0  0  0  0  0  0  0  0  0
    1.8678   25.1897    4.9282 C   0  0  0  0  0  0  0  0  0  0  0  0
    0.8402   25.9261    5.7355 C   0  0  0  0  0  0  0  0  0  0  0  0
    1.6682   27.0779    6.2228 N   0  0  0  0  0  0  0  0  0  0  0  0
    1.0522   28.1256    7.1020 C   0  0  0  0  0  0  0  0  0  0  0  0
    1.1057   29.3891    7.9087 C   0  0  0  0  0  0  0  0  0  0  0  0
    2.4569   29.1314    7.3104 C   0  0  0  0  0  0  0  0  0  0  0  0
    3.8080   28.8737    6.7121 C   0  0  0  0  0  0  0  0  0  0  0  0
    2.0430   30.4840    8.3240 N   0  0  0  0  0  0  0  0  0  0  0  0
    3.4690   30.4671    7.8588 C   0  0  0  0  0  0  0  0  0  0  0  0
    0.3677   30.3629    8.7787 C   0  0  0  0  0  0  0  0  0  0  0  0
   -0.9275   30.7381    9.4357 C   0  0  0  0  0  0  0  0  0  0  0  0
   -2.3687   30.3953    9.6713 C   0  0  0  0  0  0  0  0  0  0  0  0
   -1.7807   31.6294   10.2886 N   0  0  0  0  0  0  0  0  0  0  0  0
   -1.9339   32.8567   11.1375 C   0  0  0  0  0  0  0  0  0  0  0  0
   -3.4983   29.4435    9.4105 C   0  0  0  0  0  0  0  0  0  0  0  0
   -3.9577   28.1848    8.7362 C   0  0  0  0  0  0  0  0  0  0  0  0
   -3.6010   27.0189    7.8625 C   0  0  0  0  0  0  0  0  0  0  0  0
   -2.5415   26.3159    7.0668 C   0  0  0  0  0  0  0  0  0  0  0  0
   -1.1156   26.2990    6.6016 N   0  0  0  0  0  0  0  0  0  0  0  0
   -2.2276   25.3311    6.3247 C   0  0  0  0  0  0  0  0  0  0  0  0
   -1.0182   24.8148    5.6030 N   0  0  0  0  0  0  0  0  0  0  0  0
   -1.1052   23.5479    4.8047 C   0  0  0  0  0  0  0  0  0  0  0  0
   -1.1922   22.2809    4.0064 C   0  0  0  0  0  0  0  0  0  0  0  0
   -1.2792   21.0140    3.2082 C   0  0  0  0  0  0  0  0  0  0  0  0
   -1.3661   19.7470    2.4098 C   0  0  0  0  0  0  0  0  0  0  0  0
    0.2782   25.5656    5.6795 C   0  0  0  0  0  0  0  0  0  0  0  0
    0.6913   24.4213    4.8020 C   0  0  0  0  0  0  0  0  0  0  0  0
    2.1008   24.3346    4.2965 C   0  0  0  0  0  0  0  0  0  0  0  0
    3.0974   25.3922    4.6686 C   0  0  0  0  0  0  0  0  0  0  0  0
    2.6843   26.5365    5.5461 C   0  0  0  0  0  0  0  0  0  0  0  0
    1.2748   26.6231    6.0516 C   0  0  0  0  0  0  0  0  0  0  0  0
    0.0654   27.1394    6.7733 C   0  0  0  0  0  0  0  0  0  0  0  0
    0.1524   28.4064    7.5716 C   0  0  0  0  0  0  0  0  0  0  0  0
   -3.6769   25.1223    6.6502 C   0  0  0  0  0  0  0  0  0  0  0  0
   -4.7853   25.7703    7.4257 N   0  0  0  0  0  0  0  0  0  0  0  0
   -5.0343   26.9719    8.2884 C   0  0  0  0  0  0  0  0  0  0  0  0
   -6.3307   26.2212    8.2119 C   0  0  0  0  0  0  0  0  0  0  0  0
   -7.6270   25.4705    8.1353 C   0  0  0  0  0  0  0  0  0  0  0  0
   -4.9083   28.5162    9.2551 C   0  0  0  0  0  0  0  0  0  0  0  0
   -4.9619   27.2527    8.4484 C   0  0  0  0  0  0  0  0  0  0  0  0
   -4.9224   29.7707   10.0774 C   0  0  0  0  0  0  0  0  0  0  0  0
    0.2241   26.9736    6.6147 C   0  0  0  0  0  0  0  0  0  0  0  0
    5.3218   24.2494    3.2150 H   0  0  0  0  0  0  0  0  0  0  0  0
    4.8336   26.2306    4.6622 H   0  0  0  0  0  0  0  0  0  0  0  0
    2.5241   23.1846    3.4119 H   0  0  0  0  0  0  0  0  0  0  0  0
    3.1081   26.0203    5.0751 H   0  0  0  0  0  0  0  0  0  0  0  0
    1.2819   23.9552    4.3095 H   0  0  0  0  0  0  0  0  0  0  0  0
   -0.1076   24.8373    5.3276 H   0  0  0  0  0  0  0  0  0  0  0  0
    2.5001   28.2821    6.7429 H   0  0  0  0  0  0  0  0  0  0  0  0
    3.2884   30.2882    7.7799 H   0  0  0  0  0  0  0  0  0  0  0  0
    1.9369   27.8749    6.6772 H   0  0  0  0  0  0  0  0  0  0  0  0
    5.1591   28.6160    6.1137 H   0  0  0  0  0  0  0  0  0  0  0  0
    4.4081   30.2104    7.0330 H   0  0  0  0  0  0  0  0  0  0  0  0
    3.2079   27.5370    6.3910 H   0  0  0  0  0  0  0  0  0  0  0  0
    1.5545   31.5958    9.2044 H   0  0  0  0  0  0  0  0  0  0  0  0
    4.8528   30.2950    7.3059 H   0  0  0  0  0  0  0  0  0  0  0  0
    3.2099   29.1930    7.1107 H   0  0  0  0  0  0  0  0  0  0  0  0
    4.3674   31.5840    8.3009 H   0  0  0  0  0  0  0  0  0  0  0  0
    1.6756   31.0949    8.8393 H   0  0  0  0  0  0  0  0  0  0  0  0
    0.7323   31.6322    9.4900 H   0  0  0  0  0  0  0  0  0  0  0  0
   -0.1319   31.9042    9.9426 H   0  0  0  0  0  0  0  0  0  0  0  0
   -3.5174   30.9941   10.4275 H   0  0  0  0  0  0  0  0  0  0  0  0
   -2.0870   34.0839   11.9863 H   0  0  0  0  0  0  0  0  0  0  0  0
   -0.4442   33.0319   11.1529 H   0  0  0  0  0  0  0  0  0  0  0  0
   -3.4235   32.6814   11.1221 H   0  0  0  0  0  0  0  0  0  0  0  0
   -5.2861   28.4936    9.3607 H   0  0  0  0  0  0  0  0  0  0  0  0
   -3.8445   29.4540    9.5277 H   0  0  0  0  0  0  0  0  0  0  0  0
   -4.5009   25.9028    7.4215 H   0  0  0  0  0  0  0  0  0  0  0  0
   -3.9485   25.8094    7.1847 H   0  0  0  0  0  0  0  0  0  0  0  0
   -2.6732   25.0454    6.2804 H   0  0  0  0  0  0  0  0  0  0  0  0
   -2.6458   24.0671    5.6339 H   0  0  0  0  0  0  0  0  0  0  0  0
   -2.5712   23.3040    5.0081 H   0  0  0  0  0  0  0  0  0  0  0  0
    0.2965   23.3289    4.3176 H   0  0  0  0  0  0  0  0  0  0  0  0
   -2.6854   22.2943    4.1480 H   0  0  0  0  0  0  0  0  0  0  0  0
    0.2793   22.1133    3.7686 H   0  0  0  0  0  0  0  0  0  0  0  0
   -2.7261   20.8792    3.5798 H   0  0  0  0  0  0  0  0  0  0  0  0
    0.1678   21.1488    2.8365 H   0  0  0  0  0  0  0  0  0  0  0  0
   -1.4530   18.4801    1.6115 H   0  0  0  0  0  0  0  0  0  0  0  0
   -2.8119   19.6097    2.7851 H   0  0  0  0  0  0  0  0  0  0  0  0
    0.0797   19.8844    2.0346 H   0  0  0  0  0  0  0  0  0  0  0  0
   -0.4368   26.5545    6.5519 H   0  0  0  0  0  0  0  0  0  0  0  0
    0.9569   23.2247    3.9373 H   0  0  0  0  0  0  0  0  0  0  0  0
   -0.6658   23.7823    4.8176 H   0  0  0  0  0  0  0  0  0  0  0  0
    3.3102   23.8184    3.5748 H   0  0  0  0  0  0  0  0  0  0  0  0
    1.5243   23.0977    3.6738 H   0  0  0  0  0  0  0  0  0  0  0  0
    4.3052   26.2628    4.8515 H   0  0  0  0  0  0  0  0  0  0  0  0
    4.2167   24.7571    3.8981 H   0  0  0  0  0  0  0  0  0  0  0  0
    2.7714   27.8034    6.3444 H   0  0  0  0  0  0  0  0  0  0  0  0
    4.1242   26.8897    5.3179 H   0  0  0  0  0  0  0  0  0  0  0  0
    1.6849   27.8881    6.7456 H   0  0  0  0  0  0  0  0  0  0  0  0
   -1.3771   26.8076    7.0164 H   0  0  0  0  0  0  0  0  0  0  0  0
   -1.0570   28.9226    8.2933 H   0  0  0  0  0  0  0  0  0  0  0  0
    1.2534   29.3839    7.8582 H   0  0  0  0  0  0  0  0  0  0  0  0
   -3.4362   23.9183    5.7886 H   0  0  0  0  0  0  0  0  0  0  0  0
   -4.8892   24.2572    6.4723 H   0  0  0  0  0  0  0  0  0  0  0  0
   -5.9444   24.8471    7.1929 H   0  0  0  0  0  0  0  0  0  0  0  0
   -6.1482   27.6135    9.0614 H   0  0  0  0  0  0  0  0  0  0  0  0
   -7.1315   27.1508    9.0747 H   0  0  0  0  0  0  0  0  0  0  0  0
   -5.8459   25.1086    7.3304 H   0  0  0  0  0  0  0  0  0  0  0  0
   -8.9232   24.7196    8.0586 H   0  0  0  0  0  0  0  0  0  0  0  0
   -6.9796   24.4424    7.2554 H   0  0  0  0  0  0  0  0  0  0  0  0
   -8.2744   26.4984    9.0151 H   0  0  0  0  0  0  0  0  0  0  0  0
   -5.7957   26.1035    7.9647 H   0  0  0  0  0  0  0  0  0  0  0  0
   -6.3045   27.5303    9.0570 H   0  0  0  0  0  0  0  0  0  0  0  0
   -6.3521   29.7685   10.5313 H   0  0  0  0  0  0  0  0  0  0  0  0
   -4.4401   31.0258   10.7421 H   0  0  0  0  0  0  0  0  0  0  0  0
  1  2  2  3
  2  3  1  0
  3  4  1  0
  4  5  1  0
  5  6  1  0
  6  7  1  0
  7  8  1  0
  8  9  1  0
  7 10  1  0
 10 11  1  0
  7 12  1  0
 12 13  1  0
 13 14  1  0
 14 15  1  0
 15 16  1  0
 14 17  1  0
 17 18  1  0
 18 19  1  0
 19 20  1  0
 20 21  1  0
 21 22  1  0
 22 23  1  0
 23 24  1  0
 24 25  1  0
 25 26  1  0
 26 27  1  0
 23 28  1  0
 28 29  1  0
 29 30  1  0
 30 31  1  0
 31 32  1  0
 32 33  1  0
 33 34  1  0
 34 35  2  3
 22 36  1  0
 36 37  1  0
 37 38  1  0
 38 39  1  0
 39 40  1  0
 38 41  1  0
 41 42  1  0
 41 43  1  0
 21 44  1  0
 44  4  1  0
 44  5  1  0
 44  6  1  0
 15 13  1  0
 41 17  1  0
 43 17  1  0
 42 19  1  0
 33 28  1  0
  1 45  1  0
  1 46  1  0
  2 47  1  0
  3 48  1  0
  3 49  1  0
  4 50  1  0
  6 51  1  0
  8 52  1  0
  8 53  1  0
  9 54  1  0
  9 55  1  0
  9 56  1  0
 10 57  1  0
 11 58  1  0
 11 59  1  0
 11 60  1  0
 12 61  1  0
 12 62  1  0
 13 63  1  0
 14 64  1  0
 16 65  1  0
 16 66  1  0
 16 67  1  0
 18 68  1  0
 18 69  1  0
 19 70  1  0
 20 71  1  0
 20 72  1  0
 22 73  1  0
 24 74  1  0
 24 75  1  0
 25 76  1  0
 25 77  1  0
 26 78  1  0
 26 79  1  0
 27 80  1  0
 27 81  1  0
 27 82  1  0
 28 83  1  0
 29 84  1  0
 29 85  1  0
 30 86  1  0
 30 87  1  0
 31 88  1  0
 31 89  1  0
 32 90  1  0
 32 91  1  0
 33 92  1  0
 34 93  1  0
 35 94  1  0
 35 95  1  0
 36 96  1  0
 36 97  1  0
 37 98  1  0
 38 99  1  0
 39100  1  0
 39101  1  0
 40102  1  0
 40103  1  0
 40104  1  0
 42105  1  0
 42106  1  0
 43107  1  0
 43108  1  0
M  END
