
     RDKit          2D

 53 57  0  0  0  0  0  0  0  0999 V2000
   -2.6307   27.0325    8.3731 C   0  0  0  0  0  0  0  0  0  0  0  0
   -2.1627   26.3164    7.1409 C   0  0  0  0  0  0  0  0  0  0  0  0
   -3.6552   26.2964    6.9921 C   0  0  0  0  0  0  0  0  0  0  0  0
   -4.4768   25.7061    5.8848 C   0  0  0  0  0  0  0  0  0  0  0  0
   -4.0089   24.9900    4.6526 C   0  0  0  0  0  0  0  0  0  0  0  0
   -2.6468   24.6378    4.1325 C   0  0  0  0  0  0  0  0  0  0  0  0
   -2.7861   25.3768    5.4303 C   0  0  0  0  0  0  0  0  0  0  0  0
   -1.4238   25.0247    4.9102 C   0  0  0  0  0  0  0  0  0  0  0  0
   -0.7055   24.3538    3.7771 O   0  0  0  0  0  0  0  0  0  0  0  0
    0.6904   24.0397    3.3270 C   0  0  0  0  0  0  0  0  0  0  0  0
    2.1108   24.2292    3.7704 C   0  0  0  0  0  0  0  0  0  0  0  0
    2.8910   24.8338    4.8999 C   0  0  0  0  0  0  0  0  0  0  0  0
    2.6659   25.5705    6.1870 C   0  0  0  0  0  0  0  0  0  0  0  0
    4.1501   25.4192    6.0319 C   0  0  0  0  0  0  0  0  0  0  0  0
    5.6344   25.2678    5.8766 C   0  0  0  0  0  0  0  0  0  0  0  0
    7.1186   25.1165    5.7215 C   0  0  0  0  0  0  0  0  0  0  0  0
    8.5850   25.2219    6.0193 C   0  0  0  0  0  0  0  0  0  0  0  0
    7.5826   25.8030    6.9719 C   0  0  0  0  0  0  0  0  0  0  0  0
    1.5409   26.0946    7.0295 C   0  0  0  0  0  0  0  0  0  0  0  0
    0.0423   26.1609    7.0330 C   0  0  0  0  0  0  0  0  0  0  0  0
   -1.1232   25.7511    6.2190 C   0  0  0  0  0  0  0  0  0  0  0  0
   -3.0985   27.7486    9.6053 H   0  0  0  0  0  0  0  0  0  0  0  0
   -1.2065   27.2194    8.8053 H   0  0  0  0  0  0  0  0  0  0  0  0
   -3.4122   26.9803    8.2250 H   0  0  0  0  0  0  0  0  0  0  0  0
   -0.9822   26.7327    7.9675 H   0  0  0  0  0  0  0  0  0  0  0  0
   -4.9861   26.6789    7.5684 H   0  0  0  0  0  0  0  0  0  0  0  0
   -3.6478   26.6882    7.6863 H   0  0  0  0  0  0  0  0  0  0  0  0
   -5.8457   25.4500    5.3275 H   0  0  0  0  0  0  0  0  0  0  0  0
   -5.6401   26.2091    6.6870 H   0  0  0  0  0  0  0  0  0  0  0  0
   -5.4733   24.8800    4.3467 H   0  0  0  0  0  0  0  0  0  0  0  0
   -2.5075   23.8987    2.8346 H   0  0  0  0  0  0  0  0  0  0  0  0
   -2.7423   26.1128    6.7366 H   0  0  0  0  0  0  0  0  0  0  0  0
   -0.2330   23.4886    2.2813 H   0  0  0  0  0  0  0  0  0  0  0  0
    1.4011   23.3670    2.1901 H   0  0  0  0  0  0  0  0  0  0  0  0
    2.3445   23.4929    2.4846 H   0  0  0  0  0  0  0  0  0  0  0  0
    3.5035   23.9112    3.3131 H   0  0  0  0  0  0  0  0  0  0  0  0
    3.8933   24.2527    3.9473 H   0  0  0  0  0  0  0  0  0  0  0  0
    4.3857   24.8405    5.0253 H   0  0  0  0  0  0  0  0  0  0  0  0
    3.4535   26.1726    7.3127 H   0  0  0  0  0  0  0  0  0  0  0  0
    4.3596   26.1427    7.3291 H   0  0  0  0  0  0  0  0  0  0  0  0
    4.3061   24.6805    4.7357 H   0  0  0  0  0  0  0  0  0  0  0  0
    5.6615   26.0079    7.1811 H   0  0  0  0  0  0  0  0  0  0  0  0
    5.4248   24.5408    4.5814 H   0  0  0  0  0  0  0  0  0  0  0  0
    7.1701   24.3775    4.4171 H   0  0  0  0  0  0  0  0  0  0  0  0
    9.1458   24.5195    4.8184 H   0  0  0  0  0  0  0  0  0  0  0  0
    9.8566   25.5711    6.7341 H   0  0  0  0  0  0  0  0  0  0  0  0
    8.5061   26.3540    8.0176 H   0  0  0  0  0  0  0  0  0  0  0  0
    6.3552   26.2663    7.6990 H   0  0  0  0  0  0  0  0  0  0  0  0
    2.7062   26.5207    7.8723 H   0  0  0  0  0  0  0  0  0  0  0  0
    1.3245   26.8316    8.3179 H   0  0  0  0  0  0  0  0  0  0  0  0
    0.3290   26.8757    8.3203 H   0  0  0  0  0  0  0  0  0  0  0  0
   -1.0769   26.6880    7.8813 H   0  0  0  0  0  0  0  0  0  0  0  0
   -2.6098   25.8942    6.3596 H   0  0  0  0  0  0  0  0  0  0  0  0
  1  2  1  0
  2  3  1  0
  3  4  1  0
  4  5  1  0
  5  6  1  0
  6  7  1  0
  7  8  1  0
  8  9  1  0
  9 10  1  0
 10 11  1  0
 11 12  1  0
 12 13  1  0
 13 14  1  0
 14 15  1  0
 15 16  1  0
 16 17  1  0
 17 18  1  0
 13 19  1  0
 19 20  1  0
 20 21  1  0
 21  2  1  0
  7  5  1  0
 21  8  1  0
  8  6  1  0
 18 16  1  0
  1 22  1  0
  1 23  1  0
  1 24  1  0
  2 25  1  0
  3 26  1  0
  3 27  1  0
  4 28  1  0
  4 29  1  0
  5 30  1  0
  6 31  1  0
  7 32  1  0
 10 33  1  0
 10 34  1  0
 11 35  1  0
 11 36  1  0
 12 37  1  0
 12 38  1  0
 13 39  1  0
 14 40  1  0
 14 41  1  0
 15 42  1  0
 15 43  1  0
 16 44  1  0
 17 45  1  0
 17 46  1  0
 18 47  1  0
 18 48  1  0
 19 49  1  0
 19 50  1  0
 20 51  1  0
 20 52  1  0
 21 53  1  0
M  END
