
     RDKit          2D

 42 46  0  0  0  0  0  0  0  0999 V2000
   -7.6729   26.0463    6.2457 C   0  0  0  0  0  0  0  0  0  0  0  0
   -6.1899   26.2209    6.1029 C   0  0  0  0  0  0  0  0  0  0  0  0
   -5.8894   25.1153    5.1349 C   0  0  0  0  0  0  0  0  0  0  0  0
   -4.4810   24.8848    4.6731 C   0  0  0  0  0  0  0  0  0  0  0  0
   -2.9980   25.0594    4.5305 C   0  0  0  0  0  0  0  0  0  0  0  0
   -1.5151   25.2339    4.3877 C   0  0  0  0  0  0  0  0  0  0  0  0
   -0.0321   25.4085    4.2450 C   0  0  0  0  0  0  0  0  0  0  0  0
    1.4509   25.5831    4.1023 C   0  0  0  0  0  0  0  0  0  0  0  0
    1.7513   24.4775    3.1342 C   0  0  0  0  0  0  0  0  0  0  0  0
    3.1598   24.2470    2.6725 C   0  0  0  0  0  0  0  0  0  0  0  0
    2.8593   25.3527    3.6406 C   0  0  0  0  0  0  0  0  0  0  0  0
   -4.7815   25.9905    5.6413 C   0  0  0  0  0  0  0  0  0  0  0  0
   -3.6735   26.8657    6.1476 C   0  0  0  0  0  0  0  0  0  0  0  0
   -4.5972   27.4362    7.1826 N   0  0  0  0  0  0  0  0  0  0  0  0
   -2.5655   27.7409    6.6540 C   0  0  0  0  0  0  0  0  0  0  0  0
   -1.1787   28.2287    6.9517 C   0  0  0  0  0  0  0  0  0  0  0  0
   -1.3777   26.9295    6.2290 C   0  0  0  0  0  0  0  0  0  0  0  0
   -9.1558   25.8718    6.3884 H   0  0  0  0  0  0  0  0  0  0  0  0
   -7.7163   27.1990    7.2046 H   0  0  0  0  0  0  0  0  0  0  0  0
   -7.6294   24.8938    5.2867 H   0  0  0  0  0  0  0  0  0  0  0  0
   -6.1559   27.3821    7.0520 H   0  0  0  0  0  0  0  0  0  0  0  0
   -6.9974   24.2401    4.6285 H   0  0  0  0  0  0  0  0  0  0  0  0
   -4.6956   23.7185    3.7547 H   0  0  0  0  0  0  0  0  0  0  0  0
   -2.9544   23.9059    3.5725 H   0  0  0  0  0  0  0  0  0  0  0  0
   -2.9250   25.6791    5.0265 H   0  0  0  0  0  0  0  0  0  0  0  0
   -1.4719   24.0824    3.4276 H   0  0  0  0  0  0  0  0  0  0  0  0
   -1.7387   26.3557    5.3581 H   0  0  0  0  0  0  0  0  0  0  0  0
    0.0410   26.8040    4.7903 H   0  0  0  0  0  0  0  0  0  0  0  0
    0.0763   24.0240    3.6781 H   0  0  0  0  0  0  0  0  0  0  0  0
    1.6654   26.7494    5.0208 H   0  0  0  0  0  0  0  0  0  0  0  0
    0.6433   23.6023    2.6279 H   0  0  0  0  0  0  0  0  0  0  0  0
    2.9452   23.0807    1.7540 H   0  0  0  0  0  0  0  0  0  0  0  0
    4.6426   24.4215    2.5298 H   0  0  0  0  0  0  0  0  0  0  0  0
    3.9672   26.2279    4.1470 H   0  0  0  0  0  0  0  0  0  0  0  0
   -3.1826   26.5625    5.5975 H   0  0  0  0  0  0  0  0  0  0  0  0
   -4.4132   28.7101    7.9529 H   0  0  0  0  0  0  0  0  0  0  0  0
   -5.8929   26.8490    7.6582 H   0  0  0  0  0  0  0  0  0  0  0  0
   -3.2082   28.9323    7.3001 H   0  0  0  0  0  0  0  0  0  0  0  0
   -1.5001   29.5135    7.6559 H   0  0  0  0  0  0  0  0  0  0  0  0
    0.3198   28.2704    7.0048 H   0  0  0  0  0  0  0  0  0  0  0  0
    0.0964   26.6749    6.1178 H   0  0  0  0  0  0  0  0  0  0  0  0
   -2.0731   25.7724    5.5750 H   0  0  0  0  0  0  0  0  0  0  0  0
  1  2  1  0
  2  3  1  0
  3  4  1  0
  4  5  1  0
  5  6  1  0
  6  7  1  0
  7  8  1  0
  8  9  1  0
  9 10  1  0
 10 11  1  0
  4 12  1  0
 12 13  1  0
 13 14  1  0
 13 15  1  0
 15 16  1  0
 16 17  1  0
 12  2  1  0
 17 15  1  0
 12  3  1  0
 11  8  1  0
 11  9  1  0
  1 18  1  0
  1 19  1  0
  1 20  1  0
  2 21  1  0
  3 22  1  0
  4 23  1  0
  5 24  1  0
  5 25  1  0
  6 26  1  0
  6 27  1  0
  7 28  1  0
  7 29  1  0
  8 30  1  0
  9 31  1  0
 10 32  1  0
 10 33  1  0
 11 34  1  0
 13 35  1  0
 14 36  1  0
 14 37  1  0
 15 38  1  0
 16 39  1  0
 16 40  1  0
 17 41  1  0
 17 42  1  0
M  END
