
     RDKit          2D

102112  0  0  0  0  0  0  0  0999 V2000
   25.2138  -21.1622  -15.6932 C   0  0  0  0  0  0  0  0  0  0  0  0
   23.8803  -20.5179  -15.9315 C   0  0  0  0  0  0  0  0  0  0  0  0
   22.5469  -19.8737  -16.1698 C   0  0  0  0  0  0  0  0  0  0  0  0
   21.2134  -19.2295  -16.4081 C   0  0  0  0  0  0  0  0  0  0  0  0
   20.1374  -18.4188  -17.0676 C   0  0  0  0  0  0  0  0  0  0  0  0
   18.7683  -18.2999  -16.4407 C   0  0  0  0  0  0  0  0  0  0  0  0
   20.0541  -18.6990  -16.5677 C   0  0  0  0  0  0  0  0  0  0  0  0
   21.3437  -19.0472  -16.7788 C   0  0  0  0  0  0  0  0  0  0  0  0
   22.5414  -19.8016  -16.2824 C   0  0  0  0  0  0  0  0  0  0  0  0
   22.1677  -20.4665  -14.9909 C   0  0  0  0  0  0  0  0  0  0  0  0
   20.6704  -20.2454  -14.4515 N   0  0  0  0  0  0  0  0  0  0  0  0
   21.6062  -19.8967  -15.5707 C   0  0  0  0  0  0  0  0  0  0  0  0
   19.8399  -20.4432  -13.6376 C   0  0  0  0  0  0  0  0  0  0  0  0
   21.2690  -20.7927  -13.9299 N   0  0  0  0  0  0  0  0  0  0  0  0
   20.9353  -19.9325  -15.1125 C   0  0  0  0  0  0  0  0  0  0  0  0
   19.5444  -19.7446  -14.5833 C   0  0  0  0  0  0  0  0  0  0  0  0
   19.8781  -20.6049  -13.4007 C   0  0  0  0  0  0  0  0  0  0  0  0
   19.2397  -21.1431  -12.1546 C   0  0  0  0  0  0  0  0  0  0  0  0
   17.9279  -21.1075  -11.4280 C   0  0  0  0  0  0  0  0  0  0  0  0
   16.5788  -20.4120  -11.7393 C   0  0  0  0  0  0  0  0  0  0  0  0
   15.1952  -20.2423  -11.1853 C   0  0  0  0  0  0  0  0  0  0  0  0
   14.0193  -20.3783  -10.2642 F   0  0  0  0  0  0  0  0  0  0  0  0
   14.1891  -19.4092  -11.9226 C   0  0  0  0  0  0  0  0  0  0  0  0
   14.5666  -18.7458  -13.2140 C   0  0  0  0  0  0  0  0  0  0  0  0
   14.4493  -17.9244  -14.4636 C   0  0  0  0  0  0  0  0  0  0  0  0
   14.3322  -17.1030  -15.7132 C   0  0  0  0  0  0  0  0  0  0  0  0
   15.9501  -18.9155  -13.7679 C   0  0  0  0  0  0  0  0  0  0  0  0
   16.9563  -19.7486  -13.0306 C   0  0  0  0  0  0  0  0  0  0  0  0
   17.9730  -19.4636  -14.0960 O   0  0  0  0  0  0  0  0  0  0  0  0
   16.9669  -18.6305  -14.8333 C   0  0  0  0  0  0  0  0  0  0  0  0
   18.3946  -18.9649  -15.1491 C   0  0  0  0  0  0  0  0  0  0  0  0
   20.6112  -21.7359  -12.0216 C   0  0  0  0  0  0  0  0  0  0  0  0
   19.5735  -22.0033  -10.9720 C   0  0  0  0  0  0  0  0  0  0  0  0
   20.3629  -22.8760  -10.0417 C   0  0  0  0  0  0  0  0  0  0  0  0
   21.1522  -23.7485   -9.1114 C   0  0  0  0  0  0  0  0  0  0  0  0
   19.1674  -23.0005   -9.1442 C   0  0  0  0  0  0  0  0  0  0  0  0
   17.9720  -23.1251   -8.2468 C   0  0  0  0  0  0  0  0  0  0  0  0
   16.7766  -23.2497   -7.3493 C   0  0  0  0  0  0  0  0  0  0  0  0
   15.5811  -23.3743   -6.4519 C   0  0  0  0  0  0  0  0  0  0  0  0
   15.7664  -23.6641   -4.9919 C   0  0  0  0  0  0  0  0  0  0  0  0
   14.3857  -23.4989   -5.5544 C   0  0  0  0  0  0  0  0  0  0  0  0
   14.2005  -23.2091   -7.0145 C   0  0  0  0  0  0  0  0  0  0  0  0
   12.7036  -23.1357   -7.0775 C   0  0  0  0  0  0  0  0  0  0  0  0
   26.5473  -21.8064  -15.4548 H   0  0  0  0  0  0  0  0  0  0  0  0
   25.7335  -20.5563  -16.9631 H   0  0  0  0  0  0  0  0  0  0  0  0
   24.6942  -21.7681  -14.4232 H   0  0  0  0  0  0  0  0  0  0  0  0
   23.5322  -21.1843  -14.6335 H   0  0  0  0  0  0  0  0  0  0  0  0
   24.3950  -19.9257  -17.2100 H   0  0  0  0  0  0  0  0  0  0  0  0
   22.5335  -20.6873  -14.9097 H   0  0  0  0  0  0  0  0  0  0  0  0
   23.3803  -19.4240  -17.3330 H   0  0  0  0  0  0  0  0  0  0  0  0
   22.0983  -18.8439  -17.5563 H   0  0  0  0  0  0  0  0  0  0  0  0
   21.3533  -18.3272  -17.9412 H   0  0  0  0  0  0  0  0  0  0  0  0
   19.3008  -17.5516  -17.9610 H   0  0  0  0  0  0  0  0  0  0  0  0
   17.6864  -17.4913  -17.0933 H   0  0  0  0  0  0  0  0  0  0  0  0
   19.3811  -17.4576  -18.1599 H   0  0  0  0  0  0  0  0  0  0  0  0
   20.8776  -17.8919  -18.3565 H   0  0  0  0  0  0  0  0  0  0  0  0
   22.1167  -18.5874  -17.9793 H   0  0  0  0  0  0  0  0  0  0  0  0
   23.1940  -19.2711  -17.5245 H   0  0  0  0  0  0  0  0  0  0  0  0
   23.9607  -20.2805  -16.3609 H   0  0  0  0  0  0  0  0  0  0  0  0
   23.5418  -21.0553  -14.8660 H   0  0  0  0  0  0  0  0  0  0  0  0
   22.0894  -21.2370  -13.7062 H   0  0  0  0  0  0  0  0  0  0  0  0
   23.0320  -20.3421  -15.7071 H   0  0  0  0  0  0  0  0  0  0  0  0
   22.5868  -20.7366  -14.8074 H   0  0  0  0  0  0  0  0  0  0  0  0
   19.7864  -19.6367  -14.9013 H   0  0  0  0  0  0  0  0  0  0  0  0
   21.6828  -19.4570  -16.3230 H   0  0  0  0  0  0  0  0  0  0  0  0
   19.8297  -19.0444  -15.8788 H   0  0  0  0  0  0  0  0  0  0  0  0
   21.1106  -21.3375  -12.9600 H   0  0  0  0  0  0  0  0  0  0  0  0
   18.5585  -21.9879  -10.3903 H   0  0  0  0  0  0  0  0  0  0  0  0
   17.1452  -21.5611  -10.2315 H   0  0  0  0  0  0  0  0  0  0  0  0
   17.8011  -21.1514  -11.2817 H   0  0  0  0  0  0  0  0  0  0  0  0
   15.7929  -21.1226  -10.1281 H   0  0  0  0  0  0  0  0  0  0  0  0
   12.8959  -18.7238  -12.2511 H   0  0  0  0  0  0  0  0  0  0  0  0
   13.3626  -19.8346  -10.7455 H   0  0  0  0  0  0  0  0  0  0  0  0
   13.1423  -18.2908  -13.0939 H   0  0  0  0  0  0  0  0  0  0  0  0
   13.0262  -17.6006  -14.1172 H   0  0  0  0  0  0  0  0  0  0  0  0
   15.8475  -18.1457  -14.9597 H   0  0  0  0  0  0  0  0  0  0  0  0
   14.2150  -16.2816  -16.9628 H   0  0  0  0  0  0  0  0  0  0  0  0
   12.9244  -16.7406  -15.3429 H   0  0  0  0  0  0  0  0  0  0  0  0
   15.7399  -17.4654  -16.0834 H   0  0  0  0  0  0  0  0  0  0  0  0
   15.3982  -18.0363  -14.8507 H   0  0  0  0  0  0  0  0  0  0  0  0
   18.1912  -20.4796  -12.5941 H   0  0  0  0  0  0  0  0  0  0  0  0
   16.9744  -17.8398  -16.1080 H   0  0  0  0  0  0  0  0  0  0  0  0
   21.6660  -21.4832  -13.0577 H   0  0  0  0  0  0  0  0  0  0  0  0
   21.8561  -22.4599  -11.6021 H   0  0  0  0  0  0  0  0  0  0  0  0
   18.2617  -21.9677  -10.2455 H   0  0  0  0  0  0  0  0  0  0  0  0
   21.6456  -22.8586  -10.8191 H   0  0  0  0  0  0  0  0  0  0  0  0
   21.9416  -24.6212   -8.1811 H   0  0  0  0  0  0  0  0  0  0  0  0
   20.0644  -23.9718   -8.1030 H   0  0  0  0  0  0  0  0  0  0  0  0
   22.3451  -23.6308  -10.0131 H   0  0  0  0  0  0  0  0  0  0  0  0
   19.7025  -24.1027   -8.2788 H   0  0  0  0  0  0  0  0  0  0  0  0
   18.2126  -21.9681   -9.6660 H   0  0  0  0  0  0  0  0  0  0  0  0
   18.7617  -23.9967   -7.3158 H   0  0  0  0  0  0  0  0  0  0  0  0
   17.1822  -22.2536   -9.1778 H   0  0  0  0  0  0  0  0  0  0  0  0
   17.5665  -24.1208   -6.4180 H   0  0  0  0  0  0  0  0  0  0  0  0
   15.9867  -22.3787   -8.2806 H   0  0  0  0  0  0  0  0  0  0  0  0
   17.2633  -23.7375   -4.9287 H   0  0  0  0  0  0  0  0  0  0  0  0
   15.4317  -23.9284   -3.5537 H   0  0  0  0  0  0  0  0  0  0  0  0
   13.1903  -23.6235   -4.6569 H   0  0  0  0  0  0  0  0  0  0  0  0
   14.5351  -22.9448   -8.4526 H   0  0  0  0  0  0  0  0  0  0  0  0
   11.2068  -23.0623   -7.1407 H   0  0  0  0  0  0  0  0  0  0  0  0
   12.7793  -22.8583   -8.5497 H   0  0  0  0  0  0  0  0  0  0  0  0
   12.6279  -23.4131   -5.6053 H   0  0  0  0  0  0  0  0  0  0  0  0
  1  2  1  0
  2  3  1  0
  3  4  1  0
  4  5  1  0
  5  6  1  0
  6  7  1  0
  7  8  1  0
  8  9  1  0
  9 10  1  0
 10 11  1  0
 11 12  1  0
 11 13  1  0
 13 14  1  0
 14 15  1  0
 15 16  1  0
 16 17  1  0
 17 18  1  0
 18 19  1  0
 19 20  1  0
 20 21  1  0
 21 22  1  0
 21 23  1  0
 23 24  1  0
 24 25  1  0
 25 26  1  0
 24 27  1  0
 27 28  1  0
 28 29  1  0
 29 30  1  0
 30 31  1  0
 18 32  1  0
 32 33  1  0
 33 34  1  0
 34 35  1  0
 34 36  1  0
 36 37  1  0
 37 38  1  0
 38 39  1  0
 39 40  1  0
 40 41  1  0
 41 42  1  0
 42 43  1  0
 15  4  1  0
 31 16  1  0
 41 39  1  0
 31  6  1  0
 42 39  1  0
 12  8  1  0
 31 13  1  0
 17 14  1  0
 33 18  1  0
 28 20  1  0
 30 27  1  0
  1 44  1  0
  1 45  1  0
  1 46  1  0
  2 47  1  0
  2 48  1  0
  3 49  1  0
  3 50  1  0
  4 51  1  0
  5 52  1  0
  5 53  1  0
  6 54  1  0
  7 55  1  0
  7 56  1  0
  8 57  1  0
  9 58  1  0
  9 59  1  0
 10 60  1  0
 10 61  1  0
 12 62  1  0
 12 63  1  0
 13 64  1  0
 15 65  1  0
 16 66  1  0
 17 67  1  0
 19 68  1  0
 19 69  1  0
 20 70  1  0
 21 71  1  0
 23 72  1  0
 23 73  1  0
 24 74  1  0
 25 75  1  0
 25 76  1  0
 26 77  1  0
 26 78  1  0
 26 79  1  0
 27 80  1  0
 28 81  1  0
 30 82  1  0
 32 83  1  0
 32 84  1  0
 33 85  1  0
 34 86  1  0
 35 87  1  0
 35 88  1  0
 35 89  1  0
 36 90  1  0
 36 91  1  0
 37 92  1  0
 37 93  1  0
 38 94  1  0
 38 95  1  0
 40 96  1  0
 40 97  1  0
 41 98  1  0
 42 99  1  0
 43100  1  0
 43101  1  0
 43102  1  0
M  END
