
     RDKit          2D

 40 48  0  0  0  0  0  0  0  0999 V2000
   17.5358  -19.0631  -12.9365 C   0  0  0  0  0  0  0  0  0  0  0  0
   18.6355  -19.5722  -13.8205 N   0  0  0  0  0  0  0  0  0  0  0  0
   19.3362  -20.6828  -13.0957 C   0  0  0  0  0  0  0  0  0  0  0  0
   20.4953  -21.5556  -13.4764 C   0  0  0  0  0  0  0  0  0  0  0  0
   20.9876  -22.6057  -12.5252 C   0  0  0  0  0  0  0  0  0  0  0  0
   21.4800  -23.6558  -11.5741 C   0  0  0  0  0  0  0  0  0  0  0  0
   20.3210  -22.7831  -11.1933 C   0  0  0  0  0  0  0  0  0  0  0  0
   19.4732  -21.8276  -11.4341 C   0  0  0  0  0  0  0  0  0  0  0  0
   18.6696  -20.8602  -11.7637 C   0  0  0  0  0  0  0  0  0  0  0  0
   18.9321  -21.8039  -10.6277 O   0  0  0  0  0  0  0  0  0  0  0  0
   18.0818  -21.7465   -9.3933 C   0  0  0  0  0  0  0  0  0  0  0  0
   18.3443  -22.6903   -8.2573 C   0  0  0  0  0  0  0  0  0  0  0  0
   17.2737  -22.2523   -7.3022 C   0  0  0  0  0  0  0  0  0  0  0  0
   17.1328  -22.9302   -5.9716 C   0  0  0  0  0  0  0  0  0  0  0  0
   18.0624  -24.0459   -5.5959 C   0  0  0  0  0  0  0  0  0  0  0  0
   18.2033  -23.3680   -6.9266 C   0  0  0  0  0  0  0  0  0  0  0  0
   15.8357  -20.1345   -8.5254 C   0  0  0  0  0  0  0  0  0  0  0  0
   15.5732  -19.1907   -9.6615 O   0  0  0  0  0  0  0  0  0  0  0  0
   16.7066  -19.8018  -10.4310 C   0  0  0  0  0  0  0  0  0  0  0  0
   17.5568  -19.8591  -11.6653 C   0  0  0  0  0  0  0  0  0  0  0  0
   16.9691  -20.7456   -9.2949 C   0  0  0  0  0  0  0  0  0  0  0  0
   16.5823  -17.9529  -13.2659 H   0  0  0  0  0  0  0  0  0  0  0  0
   19.7713  -20.2602  -14.4676 H   0  0  0  0  0  0  0  0  0  0  0  0
   21.6188  -22.1333  -14.2851 H   0  0  0  0  0  0  0  0  0  0  0  0
   20.5351  -20.8022  -14.7729 H   0  0  0  0  0  0  0  0  0  0  0  0
   22.0417  -23.0072  -13.5141 H   0  0  0  0  0  0  0  0  0  0  0  0
   22.6035  -24.2336  -12.3827 H   0  0  0  0  0  0  0  0  0  0  0  0
   21.5823  -24.5053  -10.3420 H   0  0  0  0  0  0  0  0  0  0  0  0
   20.5220  -22.5299  -11.9219 H   0  0  0  0  0  0  0  0  0  0  0  0
   17.9989  -21.1164  -10.2961 H   0  0  0  0  0  0  0  0  0  0  0  0
   19.2642  -22.7598   -9.5805 H   0  0  0  0  0  0  0  0  0  0  0  0
   19.5060  -23.4559   -8.8178 H   0  0  0  0  0  0  0  0  0  0  0  0
   16.2659  -21.1619   -7.5142 H   0  0  0  0  0  0  0  0  0  0  0  0
   16.0622  -22.4923   -5.0165 H   0  0  0  0  0  0  0  0  0  0  0  0
   17.5349  -24.3760   -4.2311 H   0  0  0  0  0  0  0  0  0  0  0  0
   19.1752  -25.0469   -5.6943 H   0  0  0  0  0  0  0  0  0  0  0  0
   15.2199  -20.3697   -7.1780 H   0  0  0  0  0  0  0  0  0  0  0  0
   16.0386  -18.6979  -11.1959 H   0  0  0  0  0  0  0  0  0  0  0  0
   16.5489  -18.7686  -11.8773 H   0  0  0  0  0  0  0  0  0  0  0  0
   16.7878  -21.3916   -7.9533 H   0  0  0  0  0  0  0  0  0  0  0  0
  1  2  2  0
  2  3  1  0
  3  4  1  0
  4  5  1  0
  5  6  1  0
  6  7  1  0
  7  8  1  0
  8  9  1  0
  9 10  1  0
 10 11  1  0
 11 12  1  0
 12 13  1  0
 13 14  1  0
 14 15  1  0
 15 16  1  0
 11 17  1  0
 17 18  1  0
 18 19  1  0
 19 20  1  0
 19 21  1  0
 20  1  1  0
  9  3  1  0
 21 11  1  0
  7  5  1  0
 20  9  1  0
 16 12  1  0
 21 17  1  0
 16 13  1  0
 16 14  1  0
  1 22  1  0
  3 23  1  0
  4 24  1  0
  4 25  1  0
  5 26  1  0
  6 27  1  0
  6 28  1  0
  7 29  1  0
  8 30  1  0
  8 31  1  0
 12 32  1  0
 13 33  1  0
 14 34  1  0
 15 35  1  0
 15 36  1  0
 17 37  1  0
 19 38  1  0
 20 39  1  0
 21 40  1  0
M  END
