
     RDKit          2D

 44 49  0  0  0  0  0  0  0  0999 V2000
    1.9745   27.0994    0.7626 C   0  0  0  0  0  0  0  0  0  0  0  0
    1.6098   26.9549    2.2104 C   0  0  0  0  0  0  0  0  0  0  0  0
    2.7613   27.8386    2.5886 N   0  0  0  0  0  0  0  0  0  0  0  0
    1.2452   26.8104    3.6582 C   0  0  0  0  0  0  0  0  0  0  0  0
    0.1361   25.9493    3.1305 C   0  0  0  0  0  0  0  0  0  0  0  0
   -0.6662   25.4591    4.2992 C   0  0  0  0  0  0  0  0  0  0  0  0
    0.1736   26.1643    5.3226 C   0  0  0  0  0  0  0  0  0  0  0  0
    1.3831   27.0500    5.2743 C   0  0  0  0  0  0  0  0  0  0  0  0
    2.2229   27.7553    6.2977 C   0  0  0  0  0  0  0  0  0  0  0  0
    2.2009   27.8670    7.7934 C   0  0  0  0  0  0  0  0  0  0  0  0
    1.3301   27.3197    8.8852 C   0  0  0  0  0  0  0  0  0  0  0  0
    0.1205   26.4340    8.9336 C   0  0  0  0  0  0  0  0  0  0  0  0
   -0.7193   25.7287    7.9101 C   0  0  0  0  0  0  0  0  0  0  0  0
   -0.6973   25.6170    6.4144 C   0  0  0  0  0  0  0  0  0  0  0  0
    0.1424   26.3223    7.4379 C   0  0  0  0  0  0  0  0  0  0  0  0
   -1.5371   24.9117    5.3910 N   0  0  0  0  0  0  0  0  0  0  0  0
   -1.8289   24.5746    3.9588 C   0  0  0  0  0  0  0  0  0  0  0  0
   -2.9916   23.6901    3.6184 C   0  0  0  0  0  0  0  0  0  0  0  0
   -2.1207   24.2375    2.5266 C   0  0  0  0  0  0  0  0  0  0  0  0
   -2.7965   23.6380    1.3292 O   0  0  0  0  0  0  0  0  0  0  0  0
    2.3391   27.2439   -0.6852 H   0  0  0  0  0  0  0  0  0  0  0  0
    0.8210   26.2183    0.3842 H   0  0  0  0  0  0  0  0  0  0  0  0
    3.1638   27.9915    0.9617 H   0  0  0  0  0  0  0  0  0  0  0  0
    1.0261   26.4981    1.9171 H   0  0  0  0  0  0  0  0  0  0  0  0
    3.1631   28.2551    3.9725 H   0  0  0  0  0  0  0  0  0  0  0  0
    3.7455   28.4859    1.6600 H   0  0  0  0  0  0  0  0  0  0  0  0
    2.4305   27.7016    3.8833 H   0  0  0  0  0  0  0  0  0  0  0  0
   -0.7552   25.2120    2.1756 H   0  0  0  0  0  0  0  0  0  0  0  0
    0.3826   26.0667    2.3816 H   0  0  0  0  0  0  0  0  0  0  0  0
    0.3740   26.1847    3.8362 H   0  0  0  0  0  0  0  0  0  0  0  0
    1.9979   27.3890    3.9487 H   0  0  0  0  0  0  0  0  0  0  0  0
    3.3856   28.6398    6.6381 H   0  0  0  0  0  0  0  0  0  0  0  0
    2.8468   28.1015    4.9782 H   0  0  0  0  0  0  0  0  0  0  0  0
    3.3100   28.7280    8.3211 H   0  0  0  0  0  0  0  0  0  0  0  0
    1.7726   27.7618   10.2485 H   0  0  0  0  0  0  0  0  0  0  0  0
   -0.3628   26.1981   10.3339 H   0  0  0  0  0  0  0  0  0  0  0  0
   -1.8821   24.8442    7.5697 H   0  0  0  0  0  0  0  0  0  0  0  0
   -1.3432   25.3825    9.2296 H   0  0  0  0  0  0  0  0  0  0  0  0
    0.7663   26.6684    6.1184 H   0  0  0  0  0  0  0  0  0  0  0  0
    1.3052   27.2067    7.7783 H   0  0  0  0  0  0  0  0  0  0  0  0
   -3.5227   23.4170    4.9944 H   0  0  0  0  0  0  0  0  0  0  0  0
   -3.9698   22.9005    2.8001 H   0  0  0  0  0  0  0  0  0  0  0  0
   -1.0833   24.9294    1.6930 H   0  0  0  0  0  0  0  0  0  0  0  0
   -2.2653   23.9111   -0.0468 H   0  0  0  0  0  0  0  0  0  0  0  0
  1  2  1  0
  2  3  1  0
  2  4  1  0
  4  5  1  0
  5  6  1  0
  6  7  1  0
  7  8  1  0
  8  9  1  0
  9 10  1  0
 10 11  2  0
 11 12  1  0
 12 13  1  0
 13 14  1  0
 14 15  1  0
 14 16  1  0
 16 17  1  0
 17 18  1  0
 18 19  1  0
 19 20  1  0
  8  4  1  0
 15 12  1  0
 19 17  1  0
 16  6  1  0
 17  6  1  0
 14  7  1  0
  1 21  1  0
  1 22  1  0
  1 23  1  0
  2 24  1  0
  3 25  1  0
  3 26  1  0
  4 27  1  0
  5 28  1  0
  5 29  1  0
  7 30  1  0
  8 31  1  0
  9 32  1  0
  9 33  1  0
 10 34  1  0
 11 35  1  0
 12 36  1  0
 13 37  1  0
 13 38  1  0
 15 39  1  0
 15 40  1  0
 18 41  1  0
 18 42  1  0
 19 43  1  0
 20 44  1  0
M  END
