
     RDKit          2D

120125  0  0  0  0  0  0  0  0999 V2000
   12.9500   36.0396    7.7278 C   0  0  0  0  0  0  0  0  0  0  0  0
   11.8910   35.0696    7.2946 C   0  0  0  0  0  0  0  0  0  0  0  0
   10.8321   34.0995    6.8614 C   0  0  0  0  0  0  0  0  0  0  0  0
    9.7732   33.1295    6.4282 C   0  0  0  0  0  0  0  0  0  0  0  0
   10.8323   32.6356    5.4879 C   0  0  0  0  0  0  0  0  0  0  0  0
   10.2529   31.5060    4.6890 C   0  0  0  0  0  0  0  0  0  0  0  0
    8.8356   31.3017    5.1356 C   0  0  0  0  0  0  0  0  0  0  0  0
    7.4183   30.8687    5.3677 C   0  0  0  0  0  0  0  0  0  0  0  0
    6.0011   30.4357    5.5997 C   0  0  0  0  0  0  0  0  0  0  0  0
    4.5837   30.0027    5.8318 C   0  0  0  0  0  0  0  0  0  0  0  0
    3.1665   29.5697    6.0638 N   0  0  0  0  0  0  0  0  0  0  0  0
    7.5664   29.8164    4.3090 C   0  0  0  0  0  0  0  0  0  0  0  0
    7.7145   28.7642    3.2503 C   0  0  0  0  0  0  0  0  0  0  0  0
    6.1490   29.3837    4.5408 C   0  0  0  0  0  0  0  0  0  0  0  0
    4.7317   28.9509    4.7726 C   0  0  0  0  0  0  0  0  0  0  0  0
    3.3143   28.5182    5.0044 C   0  0  0  0  0  0  0  0  0  0  0  0
    4.9103   27.8366    3.7846 C   0  0  0  0  0  0  0  0  0  0  0  0
    5.0889   26.7222    2.7964 C   0  0  0  0  0  0  0  0  0  0  0  0
    3.4932   27.4031    4.0173 C   0  0  0  0  0  0  0  0  0  0  0  0
    3.4231   26.2304    3.0846 C   0  0  0  0  0  0  0  0  0  0  0  0
    2.1006   27.3769    4.5739 C   0  0  0  0  0  0  0  0  0  0  0  0
    1.5468   26.1951    3.8345 C   0  0  0  0  0  0  0  0  0  0  0  0
    0.9930   25.0133    3.0952 C   0  0  0  0  0  0  0  0  0  0  0  0
   -0.4219   24.8830    3.5757 C   0  0  0  0  0  0  0  0  0  0  0  0
   -0.6162   23.6944    2.6815 C   0  0  0  0  0  0  0  0  0  0  0  0
   -0.8104   22.5058    1.7873 C   0  0  0  0  0  0  0  0  0  0  0  0
   -1.0046   21.3172    0.8932 C   0  0  0  0  0  0  0  0  0  0  0  0
    0.7988   23.8246    2.2010 C   0  0  0  0  0  0  0  0  0  0  0  0
    2.1213   24.5318    2.2319 C   0  0  0  0  0  0  0  0  0  0  0  0
    3.1796   25.5261    2.6081 C   0  0  0  0  0  0  0  0  0  0  0  0
    4.2379   26.5203    2.9842 C   0  0  0  0  0  0  0  0  0  0  0  0
    2.8820   23.7051    1.2381 C   0  0  0  0  0  0  0  0  0  0  0  0
       nan       nan       nan C   0  0  0  0  0  0  0  0  0  0  0  0
    1.6723   22.8434    1.0288 C   0  0  0  0  0  0  0  0  0  0  0  0
    2.4330   22.0166    0.0349 C   0  0  0  0  0  0  0  0  0  0  0  0
    3.6968   21.7315   -0.7211 C   0  0  0  0  0  0  0  0  0  0  0  0
    3.6428   22.8783    0.2442 C   0  0  0  0  0  0  0  0  0  0  0  0
    3.0713   28.4253    5.0308 C   0  0  0  0  0  0  0  0  0  0  0  0
    2.2081   29.1735    6.0028 C   0  0  0  0  0  0  0  0  0  0  0  0
    1.3448   29.9218    6.9749 C   0  0  0  0  0  0  0  0  0  0  0  0
    3.3700   30.0536    6.3571 C   0  0  0  0  0  0  0  0  0  0  0  0
    8.5391   32.3051    6.2105 C   0  0  0  0  0  0  0  0  0  0  0  0
    7.9593   33.1740    7.2869 C   0  0  0  0  0  0  0  0  0  0  0  0
    7.3795   34.0431    8.3633 N   0  0  0  0  0  0  0  0  0  0  0  0
   14.0089   37.0097    8.1610 H   0  0  0  0  0  0  0  0  0  0  0  0
   13.6264   35.8957    6.3967 H   0  0  0  0  0  0  0  0  0  0  0  0
   12.2736   36.1836    9.0588 H   0  0  0  0  0  0  0  0  0  0  0  0
   12.7251   34.6893    6.1073 H   0  0  0  0  0  0  0  0  0  0  0  0
   11.0570   35.4498    8.4819 H   0  0  0  0  0  0  0  0  0  0  0  0
   12.0154   33.2712    6.4569 H   0  0  0  0  0  0  0  0  0  0  0  0
    9.7700   35.0532    7.3221 H   0  0  0  0  0  0  0  0  0  0  0  0
    9.0822   33.9309    7.4913 H   0  0  0  0  0  0  0  0  0  0  0  0
   12.0666   32.3662    4.6792 H   0  0  0  0  0  0  0  0  0  0  0  0
   11.8042   33.6541    6.0057 H   0  0  0  0  0  0  0  0  0  0  0  0
    9.9568   30.3694    3.7560 H   0  0  0  0  0  0  0  0  0  0  0  0
   11.6083   31.4726    4.0473 H   0  0  0  0  0  0  0  0  0  0  0  0
    9.0095   30.2550    4.0753 H   0  0  0  0  0  0  0  0  0  0  0  0
    7.0985   31.8603    6.4468 H   0  0  0  0  0  0  0  0  0  0  0  0
    5.8021   29.3094    4.6293 H   0  0  0  0  0  0  0  0  0  0  0  0
    5.8526   31.4885    6.6578 H   0  0  0  0  0  0  0  0  0  0  0  0
    4.6096   31.0995    6.8547 H   0  0  0  0  0  0  0  0  0  0  0  0
    4.7317   28.9509    4.7727 H   0  0  0  0  0  0  0  0  0  0  0  0
    1.9449   28.7318    5.8279 H   0  0  0  0  0  0  0  0  0  0  0  0
    2.3287   30.2664    7.0948 H   0  0  0  0  0  0  0  0  0  0  0  0
    8.9913   30.1177    3.9499 H   0  0  0  0  0  0  0  0  0  0  0  0
    7.8627   27.7120    2.1916 H   0  0  0  0  0  0  0  0  0  0  0  0
    6.5010   27.9628    3.6180 H   0  0  0  0  0  0  0  0  0  0  0  0
    8.9553   29.4424    2.7499 H   0  0  0  0  0  0  0  0  0  0  0  0
    6.1230   28.2872    3.5176 H   0  0  0  0  0  0  0  0  0  0  0  0
    5.6627   30.2993    5.6248 H   0  0  0  0  0  0  0  0  0  0  0  0
    4.0568   29.8361    5.7781 H   0  0  0  0  0  0  0  0  0  0  0  0
    1.9255   27.9603    5.1055 H   0  0  0  0  0  0  0  0  0  0  0  0
    2.7795   27.3860    4.1786 H   0  0  0  0  0  0  0  0  0  0  0  0
    3.1661   29.5704    6.0631 H   0  0  0  0  0  0  0  0  0  0  0  0
    3.4922   27.6856    4.2494 H   0  0  0  0  0  0  0  0  0  0  0  0
    5.4390   25.6690    1.7875 H   0  0  0  0  0  0  0  0  0  0  0  0
    3.7039   26.1569    2.9061 H   0  0  0  0  0  0  0  0  0  0  0  0
    6.5064   27.1550    2.5646 H   0  0  0  0  0  0  0  0  0  0  0  0
    3.7002   25.1490    2.0827 H   0  0  0  0  0  0  0  0  0  0  0  0
    2.0220   25.7202    3.2478 H   0  0  0  0  0  0  0  0  0  0  0  0
    4.8497   26.4638    2.6839 H   0  0  0  0  0  0  0  0  0  0  0  0
    0.8150   27.6202    5.3072 H   0  0  0  0  0  0  0  0  0  0  0  0
    0.3032   26.5285    4.6040 H   0  0  0  0  0  0  0  0  0  0  0  0
    2.7905   25.8616    3.0650 H   0  0  0  0  0  0  0  0  0  0  0  0
   -1.8369   24.7527    4.0562 H   0  0  0  0  0  0  0  0  0  0  0  0
   -0.4017   26.0468    4.5217 H   0  0  0  0  0  0  0  0  0  0  0  0
   -2.0311   23.5641    3.1620 H   0  0  0  0  0  0  0  0  0  0  0  0
   -2.1663   22.2766    2.3864 H   0  0  0  0  0  0  0  0  0  0  0  0
    0.3859   22.2937    0.9075 H   0  0  0  0  0  0  0  0  0  0  0  0
   -1.1988   20.1286   -0.0011 H   0  0  0  0  0  0  0  0  0  0  0  0
   -2.4272   21.2026    1.3546 H   0  0  0  0  0  0  0  0  0  0  0  0
    0.3289   21.1409    0.2290 H   0  0  0  0  0  0  0  0  0  0  0  0
    0.4576   22.6290    1.3620 H   0  0  0  0  0  0  0  0  0  0  0  0
    4.2607   24.9877    1.7185 H   0  0  0  0  0  0  0  0  0  0  0  0
    4.0028   24.7453    1.6268 H   0  0  0  0  0  0  0  0  0  0  0  0
    5.4968   27.3244    3.1210 H   0  0  0  0  0  0  0  0  0  0  0  0
    5.0608   25.7399    2.0025 H   0  0  0  0  0  0  0  0  0  0  0  0
    3.2788   27.1845    3.9271 H   0  0  0  0  0  0  0  0  0  0  0  0
       nan       nan       nan H   0  0  0  0  0  0  0  0  0  0  0  0
       nan       nan       nan H   0  0  0  0  0  0  0  0  0  0  0  0
       nan       nan       nan H   0  0  0  0  0  0  0  0  0  0  0  0
    0.8155   21.7426    0.4772 H   0  0  0  0  0  0  0  0  0  0  0  0
    0.5283   23.3063    1.8816 H   0  0  0  0  0  0  0  0  0  0  0  0
    1.4613   20.9704   -0.4244 H   0  0  0  0  0  0  0  0  0  0  0  0
    3.2589   20.5400   -1.5202 H   0  0  0  0  0  0  0  0  0  0  0  0
    5.1125   21.8602   -1.1996 H   0  0  0  0  0  0  0  0  0  0  0  0
    5.0083   23.4966    0.1892 H   0  0  0  0  0  0  0  0  0  0  0  0
    4.3418   29.2138    5.1500 H   0  0  0  0  0  0  0  0  0  0  0  0
    0.9497   28.3913    5.7696 H   0  0  0  0  0  0  0  0  0  0  0  0
    0.4817   30.6702    7.9469 H   0  0  0  0  0  0  0  0  0  0  0  0
    2.2400   31.0080    7.4936 H   0  0  0  0  0  0  0  0  0  0  0  0
    0.2071   28.9891    6.6826 H   0  0  0  0  0  0  0  0  0  0  0  0
    4.4180   31.0183    6.8273 H   0  0  0  0  0  0  0  0  0  0  0  0
    2.8135   30.9926    7.3860 H   0  0  0  0  0  0  0  0  0  0  0  0
    4.0851   29.2036    5.3491 H   0  0  0  0  0  0  0  0  0  0  0  0
    7.1402   31.7819    6.3497 H   0  0  0  0  0  0  0  0  0  0  0  0
    6.6531   32.4456    7.1714 H   0  0  0  0  0  0  0  0  0  0  0  0
    9.1850   34.0029    7.5328 H   0  0  0  0  0  0  0  0  0  0  0  0
    5.9622   33.8388    8.8100 H   0  0  0  0  0  0  0  0  0  0  0  0
    8.2170   35.1163    8.9931 H   0  0  0  0  0  0  0  0  0  0  0  0
  1  2  1  0
  2  3  1  0
  3  4  1  0
  4  5  1  0
  5  6  1  0
  6  7  1  0
  7  8  1  0
  8  9  1  0
  9 10  1  0
 10 11  1  0
  8 12  1  0
 12 13  1  0
 12 14  1  0
 14 15  1  0
 15 16  1  0
 15 17  1  0
 17 18  1  0
 17 19  1  0
 19 20  1  0
 19 21  1  0
 21 22  1  0
 22 23  1  0
 23 24  1  0
 24 25  1  0
 25 26  1  0
 26 27  1  0
 25 28  1  0
 28 29  1  0
 29 30  1  0
 30 31  1  0
 29 32  1  0
 32 33  1  0
 32 34  1  0
 34 35  1  0
 35 36  1  0
 36 37  1  0
 21 38  1  0
 38 39  1  0
 39 40  1  0
 39 41  1  0
  7 42  1  0
 42 43  1  0
 43 44  1  0
 42  4  1  0
 38 19  1  0
 28 23  1  0
 37 32  1  0
 29 23  1  0
 37 35  1  0
  1 45  1  0
  1 46  1  0
  1 47  1  0
  2 48  1  0
  2 49  1  0
  3 50  1  0
  3 51  1  0
  4 52  1  0
  5 53  1  0
  5 54  1  0
  6 55  1  0
  6 56  1  0
  7 57  1  0
  8 58  1  0
  9 59  1  0
  9 60  1  0
 10 61  1  0
 10 62  1  0
 11 63  1  0
 11 64  1  0
 12 65  1  0
 13 66  1  0
 13 67  1  0
 13 68  1  0
 14 69  1  0
 14 70  1  0
 15 71  1  0
 16 72  1  0
 16 73  1  0
 16 74  1  0
 17 75  1  0
 18 76  1  0
 18 77  1  0
 18 78  1  0
 20 79  1  0
 20 80  1  0
 20 81  1  0
 21 82  1  0
 22 83  1  0
 22 84  1  0
 24 85  1  0
 24 86  1  0
 25 87  1  0
 26 88  1  0
 26 89  1  0
 27 90  1  0
 27 91  1  0
 27 92  1  0
 28 93  1  0
 30 94  1  0
 30 95  1  0
 31 96  1  0
 31 97  1  0
 31 98  1  0
 33 99  1  0
 33100  1  0
 33101  1  0
 34102  1  0
 34103  1  0
 35104  1  0
 36105  1  0
 36106  1  0
 37107  1  0
 38108  1  0
 39109  1  0
 40110  1  0
 40111  1  0
 40112  1  0
 41113  1  0
 41114  1  0
 41115  1  0
 42116  1  0
 43117  1  0
 43118  1  0
 44119  1  0
 44120  1  0
M  END
