
     RDKit          2D

 68 74  0  0  0  0  0  0  0  0999 V2000
    7.7563   32.5450    4.2643 C   0  0  0  0  0  0  0  0  0  0  0  0
    6.4487   32.8863    4.9154 C   0  0  0  0  0  0  0  0  0  0  0  0
    6.3395   34.1028    5.7860 C   0  0  0  0  0  0  0  0  0  0  0  0
    5.0320   34.4442    6.4372 C   0  0  0  0  0  0  0  0  0  0  0  0
    5.8782   35.5743    6.9440 I   0  0  0  0  0  0  0  0  0  0  0  0
    3.8338   33.5689    6.2177 C   0  0  0  0  0  0  0  0  0  0  0  0
    3.9431   32.3523    5.3471 C   0  0  0  0  0  0  0  0  0  0  0  0
    2.6363   31.6209    5.2611 C   0  0  0  0  0  0  0  0  0  0  0  0
    2.3143   30.3675    4.5025 C   0  0  0  0  0  0  0  0  0  0  0  0
    3.2195   29.5360    3.6428 C   0  0  0  0  0  0  0  0  0  0  0  0
    2.0213   28.6607    3.4233 C   0  0  0  0  0  0  0  0  0  0  0  0
    0.8231   27.7855    3.2038 C   0  0  0  0  0  0  0  0  0  0  0  0
    0.9324   26.5688    2.3332 C   0  0  0  0  0  0  0  0  0  0  0  0
   -0.2659   25.6936    2.1138 C   0  0  0  0  0  0  0  0  0  0  0  0
   -1.4640   24.8183    1.8943 C   0  0  0  0  0  0  0  0  0  0  0  0
   -1.3554   23.6031    1.0215 C   0  0  0  0  0  0  0  0  0  0  0  0
   -2.6622   23.9429    1.6747 C   0  0  0  0  0  0  0  0  0  0  0  0
   -3.6080   22.8651    1.2347 C   0  0  0  0  0  0  0  0  0  0  0  0
   -5.0543   22.5559    1.4851 C   0  0  0  0  0  0  0  0  0  0  0  0
   -6.1538   23.1965    2.2792 C   0  0  0  0  0  0  0  0  0  0  0  0
   -6.2625   24.4115    3.1519 C   0  0  0  0  0  0  0  0  0  0  0  0
   -5.3167   25.4894    3.5921 C   0  0  0  0  0  0  0  0  0  0  0  0
   -3.8704   25.7986    3.3416 C   0  0  0  0  0  0  0  0  0  0  0  0
   -2.5016   26.4118    3.3257 C   0  0  0  0  0  0  0  0  0  0  0  0
   -2.7709   25.1581    2.5475 C   0  0  0  0  0  0  0  0  0  0  0  0
    3.9457   28.5737    2.7502 C   0  0  0  0  0  0  0  0  0  0  0  0
    4.6703   29.7525    3.3292 C   0  0  0  0  0  0  0  0  0  0  0  0
    5.8695   29.2350    2.5915 O   0  0  0  0  0  0  0  0  0  0  0  0
    5.5742   30.8540    3.7979 N   0  0  0  0  0  0  0  0  0  0  0  0
    5.2506   32.0111    4.6960 C   0  0  0  0  0  0  0  0  0  0  0  0
    8.9544   33.4203    4.4838 H   0  0  0  0  0  0  0  0  0  0  0  0
    7.8655   31.3284    3.3936 H   0  0  0  0  0  0  0  0  0  0  0  0
    7.7832   34.1952    5.3894 H   0  0  0  0  0  0  0  0  0  0  0  0
    6.7316   35.3515    6.5190 H   0  0  0  0  0  0  0  0  0  0  0  0
    4.0184   35.1780    7.2644 H   0  0  0  0  0  0  0  0  0  0  0  0
    3.2363   34.6066    7.1211 H   0  0  0  0  0  0  0  0  0  0  0  0
    2.6682   33.2679    6.3824 H   0  0  0  0  0  0  0  0  0  0  0  0
    5.0768   33.2923    5.6316 H   0  0  0  0  0  0  0  0  0  0  0  0
    2.2365   32.5031    5.9945 H   0  0  0  0  0  0  0  0  0  0  0  0
    1.1962   31.5567    5.6758 H   0  0  0  0  0  0  0  0  0  0  0  0
    0.9400   30.5590    5.0721 H   0  0  0  0  0  0  0  0  0  0  0  0
    1.7640   29.8254    4.3055 H   0  0  0  0  0  0  0  0  0  0  0  0
    1.5122   29.0784    3.8726 H   0  0  0  0  0  0  0  0  0  0  0  0
    2.6870   27.6613    2.5244 H   0  0  0  0  0  0  0  0  0  0  0  0
   -0.4844   28.1268    3.8549 H   0  0  0  0  0  0  0  0  0  0  0  0
    2.2399   26.2274    1.6821 H   0  0  0  0  0  0  0  0  0  0  0  0
    0.6921   24.9077    1.2683 H   0  0  0  0  0  0  0  0  0  0  0  0
   -1.0838   26.5928    2.9925 H   0  0  0  0  0  0  0  0  0  0  0  0
    0.0878   23.6967    0.6234 H   0  0  0  0  0  0  0  0  0  0  0  0
   -1.5747   22.3496    0.2275 H   0  0  0  0  0  0  0  0  0  0  0  0
   -3.7017   21.6187    0.4052 H   0  0  0  0  0  0  0  0  0  0  0  0
   -2.3876   22.3807    0.5094 H   0  0  0  0  0  0  0  0  0  0  0  0
   -6.1439   21.5776    1.1597 H   0  0  0  0  0  0  0  0  0  0  0  0
   -4.7454   21.3956    0.5859 H   0  0  0  0  0  0  0  0  0  0  0  0
   -7.6012   23.0593    2.6486 H   0  0  0  0  0  0  0  0  0  0  0  0
   -6.9374   22.0399    1.7329 H   0  0  0  0  0  0  0  0  0  0  0  0
   -7.2197   25.1958    3.9996 H   0  0  0  0  0  0  0  0  0  0  0  0
   -7.6796   23.9363    3.2785 H   0  0  0  0  0  0  0  0  0  0  0  0
   -5.0474   26.7431    4.3702 H   0  0  0  0  0  0  0  0  0  0  0  0
   -6.5372   25.9737    4.3172 H   0  0  0  0  0  0  0  0  0  0  0  0
   -4.1670   26.9629    4.2396 H   0  0  0  0  0  0  0  0  0  0  0  0
   -2.7359   27.5953    4.2169 H   0  0  0  0  0  0  0  0  0  0  0  0
   -1.0600   26.7632    3.1059 H   0  0  0  0  0  0  0  0  0  0  0  0
    2.9568   27.5218    2.3427 H   0  0  0  0  0  0  0  0  0  0  0  0
    5.0576   27.9449    1.9639 H   0  0  0  0  0  0  0  0  0  0  0  0
    7.1762   29.9665    2.6776 H   0  0  0  0  0  0  0  0  0  0  0  0
    6.9888   30.7900    3.3031 H   0  0  0  0  0  0  0  0  0  0  0  0
    6.6014   31.7609    4.0936 H   0  0  0  0  0  0  0  0  0  0  0  0
  1  2  2  3
  2  3  1  0
  3  4  1  0
  4  5  1  0
  4  6  1  0
  6  7  1  0
  7  8  1  0
  8  9  1  0
  9 10  1  0
 10 11  1  6
 11 12  1  0
 12 13  2  3
 13 14  1  0
 15 14  1  6
 15 16  1  0
 17 16  1  1
 17 18  1  0
 18 19  1  0
 19 20  1  0
 20 21  1  0
 21 22  1  0
 22 23  1  0
 23 24  1  0
 25 24  1  6
 10 26  1  0
 26 27  1  0
 27 28  1  6
 27 29  1  0
 29 30  1  0
 30  2  1  0
 30  7  1  0
 27 10  1  0
 17 15  1  0
 25 23  1  0
 25 15  1  0
 25 17  1  0
  1 31  1  0
  1 32  1  0
  3 33  1  0
  3 34  1  0
  4 35  1  1
  6 36  1  0
  6 37  1  0
  7 38  1  6
  8 39  1  0
  8 40  1  0
  9 41  1  0
  9 42  1  0
 11 43  1  0
 11 44  1  0
 12 45  1  0
 13 46  1  0
 14 47  1  0
 14 48  1  0
 16 49  1  0
 16 50  1  0
 18 51  1  0
 18 52  1  0
 19 53  1  0
 19 54  1  0
 20 55  1  0
 20 56  1  0
 21 57  1  0
 21 58  1  0
 22 59  1  0
 22 60  1  0
 23 61  1  1
 24 62  1  0
 24 63  1  0
 26 64  1  0
 26 65  1  0
 28 66  1  0
 29 67  1  0
 30 68  1  6
M  END
