
     RDKit          2D

 98108  0  0  0  0  0  0  0  0999 V2000
   14.9889  -23.1043   -7.8388 C   0  0  0  0  0  0  0  0  0  0  0  0
   15.7060  -22.2411   -8.8341 C   0  0  0  0  0  0  0  0  0  0  0  0
   15.7767  -22.6565  -10.2737 C   0  0  0  0  0  0  0  0  0  0  0  0
   16.5642  -21.5109  -10.8371 C   0  0  0  0  0  0  0  0  0  0  0  0
   16.1124  -22.6239  -11.7353 C   0  0  0  0  0  0  0  0  0  0  0  0
   16.2514  -22.9299  -13.1972 C   0  0  0  0  0  0  0  0  0  0  0  0
   15.6030  -23.6102  -12.0280 C   0  0  0  0  0  0  0  0  0  0  0  0
   14.9546  -24.2905  -10.8590 C   0  0  0  0  0  0  0  0  0  0  0  0
   14.2384  -25.5942  -11.0525 C   0  0  0  0  0  0  0  0  0  0  0  0
   15.1511  -24.7233  -12.9263 C   0  0  0  0  0  0  0  0  0  0  0  0
   15.7995  -24.0431  -14.0955 C   0  0  0  0  0  0  0  0  0  0  0  0
   16.4479  -23.3628  -15.2645 N   0  0  0  0  0  0  0  0  0  0  0  0
   16.8998  -22.2497  -14.3663 C   0  0  0  0  0  0  0  0  0  0  0  0
   17.6777  -20.9816  -14.5577 C   0  0  0  0  0  0  0  0  0  0  0  0
   18.4210  -20.0364  -15.4545 C   0  0  0  0  0  0  0  0  0  0  0  0
   18.5600  -20.3424  -16.9164 C   0  0  0  0  0  0  0  0  0  0  0  0
   18.1296  -19.8685  -13.6595 C   0  0  0  0  0  0  0  0  0  0  0  0
   18.2989  -19.1005  -12.3822 O   0  0  0  0  0  0  0  0  0  0  0  0
   18.9076  -18.6004  -13.8510 C   0  0  0  0  0  0  0  0  0  0  0  0
   18.7685  -18.2944  -12.3892 C   0  0  0  0  0  0  0  0  0  0  0  0
   17.9905  -19.5625  -12.1976 C   0  0  0  0  0  0  0  0  0  0  0  0
   17.3421  -20.2427  -11.0285 C   0  0  0  0  0  0  0  0  0  0  0  0
   17.0065  -20.2753   -9.5669 C   0  0  0  0  0  0  0  0  0  0  0  0
   16.6279  -21.5711   -8.9131 C   0  0  0  0  0  0  0  0  0  0  0  0
   16.8167  -22.2774  -10.3077 C   0  0  0  0  0  0  0  0  0  0  0  0
   17.2199  -21.6819  -11.6240 C   0  0  0  0  0  0  0  0  0  0  0  0
   17.4929  -21.9789  -13.0687 C   0  0  0  0  0  0  0  0  0  0  0  0
   17.9071  -21.0322  -14.1561 C   0  0  0  0  0  0  0  0  0  0  0  0
   18.1561  -21.4366  -15.5789 C   0  0  0  0  0  0  0  0  0  0  0  0
   18.5705  -20.5773  -16.7366 C   0  0  0  0  0  0  0  0  0  0  0  0
   18.8383  -19.1016  -16.7572 C   0  0  0  0  0  0  0  0  0  0  0  0
   18.7579  -18.1205  -15.6253 C   0  0  0  0  0  0  0  0  0  0  0  0
   19.1723  -17.2613  -16.7829 C   0  0  0  0  0  0  0  0  0  0  0  0
   18.4413  -18.0890  -14.1972 C   0  0  0  0  0  0  0  0  0  0  0  0
   18.8409  -16.9135  -15.0391 C   0  0  0  0  0  0  0  0  0  0  0  0
   18.9448  -15.5501  -14.4224 O   0  0  0  0  0  0  0  0  0  0  0  0
   19.1364  -17.1015  -16.4976 O   0  0  0  0  0  0  0  0  0  0  0  0
   18.1505  -19.5547  -14.0673 C   0  0  0  0  0  0  0  0  0  0  0  0
   18.0399  -18.6591  -12.8691 C   0  0  0  0  0  0  0  0  0  0  0  0
   17.6697  -18.9518  -11.4598 C   0  0  0  0  0  0  0  0  0  0  0  0
   17.4528  -18.4166  -10.0755 O   0  0  0  0  0  0  0  0  0  0  0  0
   17.0495  -19.0121   -8.7592 C   0  0  0  0  0  0  0  0  0  0  0  0
   16.6709  -20.3079   -8.1053 C   0  0  0  0  0  0  0  0  0  0  0  0
   17.5732  -20.3044  -12.1013 C   0  0  0  0  0  0  0  0  0  0  0  0
   17.9877  -19.3791  -13.2068 C   0  0  0  0  0  0  0  0  0  0  0  0
   14.9182  -22.6888   -6.3991 H   0  0  0  0  0  0  0  0  0  0  0  0
   14.3424  -24.3828   -8.2830 H   0  0  0  0  0  0  0  0  0  0  0  0
   16.0632  -21.2337   -7.7817 H   0  0  0  0  0  0  0  0  0  0  0  0
   14.9906  -23.7911   -9.6865 H   0  0  0  0  0  0  0  0  0  0  0  0
   16.3380  -21.3503   -9.3629 H   0  0  0  0  0  0  0  0  0  0  0  0
   15.3236  -23.8492  -11.3794 H   0  0  0  0  0  0  0  0  0  0  0  0
   15.7923  -22.8150  -10.7704 H   0  0  0  0  0  0  0  0  0  0  0  0
   14.8297  -23.9628   -9.4006 H   0  0  0  0  0  0  0  0  0  0  0  0
   13.5900  -26.2744   -9.8833 H   0  0  0  0  0  0  0  0  0  0  0  0
   14.1706  -26.2176  -12.4151 H   0  0  0  0  0  0  0  0  0  0  0  0
   14.6993  -25.8364  -13.8246 H   0  0  0  0  0  0  0  0  0  0  0  0
   14.4127  -25.6527  -12.0094 H   0  0  0  0  0  0  0  0  0  0  0  0
   15.3477  -25.1561  -14.9937 H   0  0  0  0  0  0  0  0  0  0  0  0
   16.5870  -23.6688  -16.7264 H   0  0  0  0  0  0  0  0  0  0  0  0
   17.0590  -22.5225  -15.8326 H   0  0  0  0  0  0  0  0  0  0  0  0
   17.8032  -21.3096  -16.0160 H   0  0  0  0  0  0  0  0  0  0  0  0
   19.1306  -18.7331  -15.2358 H   0  0  0  0  0  0  0  0  0  0  0  0
   19.2162  -19.6429  -18.0697 H   0  0  0  0  0  0  0  0  0  0  0  0
   18.0223  -21.5394  -17.6432 H   0  0  0  0  0  0  0  0  0  0  0  0
   18.9162  -17.8400  -11.8528 H   0  0  0  0  0  0  0  0  0  0  0  0
   19.5840  -17.3069  -13.5057 H   0  0  0  0  0  0  0  0  0  0  0  0
   19.0465  -18.9065  -15.3128 H   0  0  0  0  0  0  0  0  0  0  0  0
   18.6295  -17.9883  -10.9273 H   0  0  0  0  0  0  0  0  0  0  0  0
   19.5238  -16.9984  -12.4010 H   0  0  0  0  0  0  0  0  0  0  0  0
   18.4253  -18.4675  -11.2692 H   0  0  0  0  0  0  0  0  0  0  0  0
   18.0040  -18.9559  -10.6337 H   0  0  0  0  0  0  0  0  0  0  0  0
   16.2803  -22.9621   -8.4721 H   0  0  0  0  0  0  0  0  0  0  0  0
   16.5880  -23.7520  -10.4600 H   0  0  0  0  0  0  0  0  0  0  0  0
   16.4192  -23.4693   -9.4884 H   0  0  0  0  0  0  0  0  0  0  0  0
   17.3345  -22.5657  -12.8305 H   0  0  0  0  0  0  0  0  0  0  0  0
   17.2228  -23.4540  -13.0373 H   0  0  0  0  0  0  0  0  0  0  0  0
   17.4530  -23.2363  -13.8855 H   0  0  0  0  0  0  0  0  0  0  0  0
   18.2522  -20.9405  -15.6130 H   0  0  0  0  0  0  0  0  0  0  0  0
   17.9011  -22.9143  -15.6169 H   0  0  0  0  0  0  0  0  0  0  0  0
   18.1863  -22.5450  -16.5891 H   0  0  0  0  0  0  0  0  0  0  0  0
   18.4665  -21.9407  -17.3532 H   0  0  0  0  0  0  0  0  0  0  0  0
   18.9127  -20.5043  -18.1951 H   0  0  0  0  0  0  0  0  0  0  0  0
   19.1601  -19.1499  -18.2214 H   0  0  0  0  0  0  0  0  0  0  0  0
   19.2347  -17.9021  -17.5658 H   0  0  0  0  0  0  0  0  0  0  0  0
   18.9988  -16.6434  -15.5257 H   0  0  0  0  0  0  0  0  0  0  0  0
   19.5822  -16.5551  -18.0412 H   0  0  0  0  0  0  0  0  0  0  0  0
   19.1844  -16.0590  -15.8862 H   0  0  0  0  0  0  0  0  0  0  0  0
   19.2609  -18.2201  -17.9331 H   0  0  0  0  0  0  0  0  0  0  0  0
   19.5196  -15.8256  -17.1871 H   0  0  0  0  0  0  0  0  0  0  0  0
   18.4973  -19.4522  -15.5230 H   0  0  0  0  0  0  0  0  0  0  0  0
   18.3054  -17.1828  -12.8790 H   0  0  0  0  0  0  0  0  0  0  0  0
   17.9677  -17.4912  -11.6260 H   0  0  0  0  0  0  0  0  0  0  0  0
   17.2930  -17.5346   -8.6703 H   0  0  0  0  0  0  0  0  0  0  0  0
   16.3353  -20.3405   -6.6437 H   0  0  0  0  0  0  0  0  0  0  0  0
   17.6913  -21.1779  -13.3150 H   0  0  0  0  0  0  0  0  0  0  0  0
   18.3977  -18.3203  -14.1869 H   0  0  0  0  0  0  0  0  0  0  0  0
   18.1724  -17.9273  -12.8781 H   0  0  0  0  0  0  0  0  0  0  0  0
   17.9989  -20.5315  -14.1670 H   0  0  0  0  0  0  0  0  0  0  0  0
  1  2  2  3
  2  3  1  0
  3  4  1  0
  4  5  1  0
  5  6  1  0
  6  7  1  0
  7  8  1  0
  8  9  2  3
  7 10  1  0
 10 11  1  0
 11 12  1  0
 12 13  1  0
 13 14  1  0
 14 15  1  0
 15 16  2  3
 14 17  1  0
 17 18  1  0
 17 19  1  0
 19 20  1  0
 20 21  1  0
 21 22  1  0
 22 23  1  0
 23 24  1  0
 24 25  1  0
 25 26  1  0
 26 27  1  0
 27 28  1  0
 28 29  1  0
 29 30  1  0
 30 31  1  0
 31 32  1  0
 32 33  1  0
 32 34  1  0
 34 35  1  0
 35 36  2  0
 35 37  1  0
 34 38  1  0
 38 39  1  0
 39 40  1  0
 40 41  1  0
 41 42  1  0
 42 43  1  0
 40 44  1  0
 44 45  1  0
  5  3  1  0
 11  6  1  0
 21 17  1  0
 42 23  1  0
 22  4  1  0
 43 23  1  0
 13  6  1  0
 43 24  1  0
 44 26  1  0
 38 28  1  0
 39 34  1  0
  1 46  1  0
  1 47  1  0
  2 48  1  0
  3 49  1  0
  4 50  1  0
  5 51  1  0
  7 52  1  0
  8 53  1  0
  9 54  1  0
  9 55  1  0
 10 56  1  0
 10 57  1  0
 11 58  1  0
 12 59  1  0
 13 60  1  0
 14 61  1  0
 15 62  1  0
 16 63  1  0
 16 64  1  0
 18 65  1  0
 19 66  1  0
 19 67  1  0
 20 68  1  0
 20 69  1  0
 21 70  1  0
 22 71  1  0
 24 72  1  0
 25 73  1  0
 25 74  1  0
 26 75  1  0
 27 76  1  0
 27 77  1  0
 28 78  1  0
 29 79  1  0
 29 80  1  0
 30 81  1  0
 30 82  1  0
 31 83  1  0
 31 84  1  0
 32 85  1  0
 33 86  1  0
 33 87  1  0
 33 88  1  0
 37 89  1  0
 38 90  1  0
 39 91  1  0
 40 92  1  0
 42 93  1  0
 43 94  1  0
 44 95  1  0
 45 96  1  0
 45 97  1  0
 45 98  1  0
M  END
