
     RDKit          2D

102108  0  0  0  0  0  0  0  0999 V2000
    4.8709   18.0830    6.4762 C   0  0  0  0  0  0  0  0  0  0  0  0
    3.6242   18.7257    7.0077 C   0  0  0  0  0  0  0  0  0  0  0  0
    2.7557   17.9860    7.9817 C   0  0  0  0  0  0  0  0  0  0  0  0
    3.2459   20.1081    6.5653 C   0  0  0  0  0  0  0  0  0  0  0  0
    2.1396   19.7460    7.5111 C   0  0  0  0  0  0  0  0  0  0  0  0
    0.9489   20.5642    7.9148 C   0  0  0  0  0  0  0  0  0  0  0  0
   -0.3259   20.8172    8.6638 C   0  0  0  0  0  0  0  0  0  0  0  0
   -1.6006   21.0704    9.4127 C   0  0  0  0  0  0  0  0  0  0  0  0
   -2.8754   21.3234   10.1617 N   0  0  0  0  0  0  0  0  0  0  0  0
    0.5707   21.9466    7.4724 C   0  0  0  0  0  0  0  0  0  0  0  0
   -0.3000   23.1679    7.4509 C   0  0  0  0  0  0  0  0  0  0  0  0
    1.2896   22.8523    6.5170 C   0  0  0  0  0  0  0  0  0  0  0  0
    0.6491   24.1876    6.2790 C   0  0  0  0  0  0  0  0  0  0  0  0
    0.0086   25.5230    6.0410 C   0  0  0  0  0  0  0  0  0  0  0  0
   -0.6319   26.8584    5.8031 C   0  0  0  0  0  0  0  0  0  0  0  0
   -1.2724   28.1936    5.5652 O   0  0  0  0  0  0  0  0  0  0  0  0
   -0.6345   29.1750    4.6271 C   0  0  0  0  0  0  0  0  0  0  0  0
   -1.4139   30.4517    4.5146 C   0  0  0  0  0  0  0  0  0  0  0  0
   -1.2485   31.7315    3.7500 C   0  0  0  0  0  0  0  0  0  0  0  0
   -0.2351   32.2649    2.7812 C   0  0  0  0  0  0  0  0  0  0  0  0
    1.0326   31.7393    2.1757 C   0  0  0  0  0  0  0  0  0  0  0  0
    1.8120   30.4627    2.2881 O   0  0  0  0  0  0  0  0  0  0  0  0
    1.6466   29.1828    3.0527 C   0  0  0  0  0  0  0  0  0  0  0  0
    1.8150   27.8105    3.6345 C   0  0  0  0  0  0  0  0  0  0  0  0
    0.6332   28.6494    4.0215 C   0  0  0  0  0  0  0  0  0  0  0  0
   -2.4445   31.5672    4.6570 O   0  0  0  0  0  0  0  0  0  0  0  0
   -2.7740   30.3669    5.4941 C   0  0  0  0  0  0  0  0  0  0  0  0
   -1.8690   29.1708    5.4791 O   0  0  0  0  0  0  0  0  0  0  0  0
   -1.0968   25.1616    6.9884 C   0  0  0  0  0  0  0  0  0  0  0  0
   -2.2022   24.8001    7.9357 C   0  0  0  0  0  0  0  0  0  0  0  0
   -1.7639   23.4220    8.3338 C   0  0  0  0  0  0  0  0  0  0  0  0
   -3.4598   24.9174    8.7448 C   0  0  0  0  0  0  0  0  0  0  0  0
   -3.0244   26.0528    7.8666 C   0  0  0  0  0  0  0  0  0  0  0  0
   -4.1314   27.0289    8.1349 C   0  0  0  0  0  0  0  0  0  0  0  0
   -5.2384   28.0050    8.4031 C   0  0  0  0  0  0  0  0  0  0  0  0
   -3.4934   28.0103    7.1968 O   0  0  0  0  0  0  0  0  0  0  0  0
   -4.7694   26.0475    9.0729 C   0  0  0  0  0  0  0  0  0  0  0  0
   -5.4074   25.0662   10.0108 C   0  0  0  0  0  0  0  0  0  0  0  0
   -6.0455   24.0848   10.9489 C   0  0  0  0  0  0  0  0  0  0  0  0
    3.5006   23.2495    4.7929 C   0  0  0  0  0  0  0  0  0  0  0  0
    4.3712   22.0282    4.8144 O   0  0  0  0  0  0  0  0  0  0  0  0
    3.4351   21.3780    5.7895 C   0  0  0  0  0  0  0  0  0  0  0  0
    2.5644   22.5992    5.7680 C   0  0  0  0  0  0  0  0  0  0  0  0
    5.2492   16.7005    6.9187 H   0  0  0  0  0  0  0  0  0  0  0  0
    5.7394   18.8226    5.5023 H   0  0  0  0  0  0  0  0  0  0  0  0
    1.8872   17.2464    8.9557 H   0  0  0  0  0  0  0  0  0  0  0  0
    3.6939   16.8168    7.9304 H   0  0  0  0  0  0  0  0  0  0  0  0
    2.2046   18.5549    8.0718 H   0  0  0  0  0  0  0  0  0  0  0  0
    4.5231   19.6912    5.8981 H   0  0  0  0  0  0  0  0  0  0  0  0
    1.7574   19.2647    8.0189 H   0  0  0  0  0  0  0  0  0  0  0  0
    2.7578   18.4036    7.7679 H   0  0  0  0  0  0  0  0  0  0  0  0
    0.6072   19.3708    8.7568 H   0  0  0  0  0  0  0  0  0  0  0  0
   -0.2272   19.4582    9.2908 H   0  0  0  0  0  0  0  0  0  0  0  0
   -0.5791   22.1971    8.1327 H   0  0  0  0  0  0  0  0  0  0  0  0
   -1.5041   19.7097   10.0367 H   0  0  0  0  0  0  0  0  0  0  0  0
   -1.6971   22.4309    8.7887 H   0  0  0  0  0  0  0  0  0  0  0  0
   -3.4287   20.2719   11.0772 H   0  0  0  0  0  0  0  0  0  0  0  0
   -3.5968   22.6279    9.9951 H   0  0  0  0  0  0  0  0  0  0  0  0
   -0.6056   21.7500    8.3821 H   0  0  0  0  0  0  0  0  0  0  0  0
   -1.1706   24.3891    7.4293 H   0  0  0  0  0  0  0  0  0  0  0  0
   -1.4841   22.3305    7.8337 H   0  0  0  0  0  0  0  0  0  0  0  0
    0.6382   24.2759    7.0742 H   0  0  0  0  0  0  0  0  0  0  0  0
   -0.5267   23.9913    7.1895 H   0  0  0  0  0  0  0  0  0  0  0  0
    1.6688   24.7096    5.3105 H   0  0  0  0  0  0  0  0  0  0  0  0
    1.1140   25.8844    5.0937 H   0  0  0  0  0  0  0  0  0  0  0  0
    0.5409   27.0524    4.8883 H   0  0  0  0  0  0  0  0  0  0  0  0
   -1.8570   26.8326    6.6682 H   0  0  0  0  0  0  0  0  0  0  0  0
   -2.6785   30.9994    5.1067 H   0  0  0  0  0  0  0  0  0  0  0  0
   -2.4135   29.8962    5.4852 H   0  0  0  0  0  0  0  0  0  0  0  0
   -2.3564   32.7068    4.0169 H   0  0  0  0  0  0  0  0  0  0  0  0
    0.1051   33.4592    1.9398 H   0  0  0  0  0  0  0  0  0  0  0  0
   -1.2503   33.3600    2.9233 H   0  0  0  0  0  0  0  0  0  0  0  0
    2.2132   31.9240    1.2690 H   0  0  0  0  0  0  0  0  0  0  0  0
    1.0200   33.0799    1.5028 H   0  0  0  0  0  0  0  0  0  0  0  0
    2.9251   28.8288    2.3525 H   0  0  0  0  0  0  0  0  0  0  0  0
    3.0923   27.3985    2.9646 H   0  0  0  0  0  0  0  0  0  0  0  0
    1.5397   26.5813    4.4490 H   0  0  0  0  0  0  0  0  0  0  0  0
    0.4569   27.3742    4.7913 H   0  0  0  0  0  0  0  0  0  0  0  0
   -3.6284   29.6099    6.4671 H   0  0  0  0  0  0  0  0  0  0  0  0
   -3.9333   31.2530    5.8417 H   0  0  0  0  0  0  0  0  0  0  0  0
   -0.6149   24.2024    8.0361 H   0  0  0  0  0  0  0  0  0  0  0  0
   -2.0374   26.0503    6.2298 H   0  0  0  0  0  0  0  0  0  0  0  0
   -1.3255   22.0438    8.7319 H   0  0  0  0  0  0  0  0  0  0  0  0
   -2.8810   22.9222    9.2012 H   0  0  0  0  0  0  0  0  0  0  0  0
   -3.0245   23.2506    9.1285 H   0  0  0  0  0  0  0  0  0  0  0  0
   -3.7674   23.7056    9.5735 H   0  0  0  0  0  0  0  0  0  0  0  0
   -4.7339   25.1781    9.4923 H   0  0  0  0  0  0  0  0  0  0  0  0
   -2.4660   27.0994    6.9486 H   0  0  0  0  0  0  0  0  0  0  0  0
   -6.3454   28.9810    8.6714 H   0  0  0  0  0  0  0  0  0  0  0  0
   -6.0063   27.1501    9.3671 H   0  0  0  0  0  0  0  0  0  0  0  0
   -4.7403   29.0978    7.5045 H   0  0  0  0  0  0  0  0  0  0  0  0
   -4.1299   29.3484    6.9646 H   0  0  0  0  0  0  0  0  0  0  0  0
   -6.1839   26.5116    8.8888 H   0  0  0  0  0  0  0  0  0  0  0  0
   -3.6171   25.2394    9.5916 H   0  0  0  0  0  0  0  0  0  0  0  0
   -6.5108   26.0449   10.2844 H   0  0  0  0  0  0  0  0  0  0  0  0
   -4.3041   24.0874    9.7374 H   0  0  0  0  0  0  0  0  0  0  0  0
   -6.6835   23.1035   11.8869 H   0  0  0  0  0  0  0  0  0  0  0  0
   -7.1152   25.0863   11.2691 H   0  0  0  0  0  0  0  0  0  0  0  0
   -4.9757   23.0833   10.6287 H   0  0  0  0  0  0  0  0  0  0  0  0
    3.5469   24.5728    4.0882 H   0  0  0  0  0  0  0  0  0  0  0  0
    4.6302   20.5709    5.3770 H   0  0  0  0  0  0  0  0  0  0  0  0
    2.1984   23.9822    5.3169 H   0  0  0  0  0  0  0  0  0  0  0  0
  1  2  2  3
  2  3  1  0
  2  4  1  0
  4  5  1  0
  5  6  1  0
  6  7  1  0
  7  8  1  0
  8  9  1  0
  6 10  1  0
 10 11  1  0
 10 12  1  0
 12 13  1  0
 13 14  1  0
 14 15  1  0
 15 16  1  0
 16 17  1  0
 17 18  1  0
 18 19  1  0
 19 20  1  0
 20 21  1  0
 21 22  1  0
 22 23  1  0
 23 24  1  0
 24 25  1  0
 19 26  1  0
 26 27  1  0
 27 28  1  0
 14 29  1  0
 29 30  1  0
 30 31  1  0
 30 32  1  0
 32 33  1  0
 33 34  1  0
 34 35  1  0
 34 36  1  0
 34 37  1  0
 37 38  1  0
 38 39  1  0
 12 40  1  0
 40 41  1  0
 41 42  1  0
 42 43  1  0
 42  4  1  0
 43 12  1  0
 25 17  1  0
 33 30  1  0
 43 40  1  0
 28 17  1  0
 25 23  1  0
  1 44  1  0
  1 45  1  0
  3 46  1  0
  3 47  1  0
  3 48  1  0
  4 49  1  0
  5 50  1  0
  5 51  1  0
  6 52  1  0
  7 53  1  0
  7 54  1  0
  8 55  1  0
  8 56  1  0
  9 57  1  0
  9 58  1  0
 10 59  1  0
 11 60  1  0
 11 61  1  0
 11 62  1  0
 13 63  1  0
 13 64  1  0
 14 65  1  0
 15 66  1  0
 15 67  1  0
 18 68  1  0
 18 69  1  0
 19 70  1  0
 20 71  1  0
 20 72  1  0
 21 73  1  0
 21 74  1  0
 23 75  1  0
 24 76  1  0
 24 77  1  0
 25 78  1  0
 27 79  1  0
 27 80  1  0
 29 81  1  0
 29 82  1  0
 31 83  1  0
 31 84  1  0
 31 85  1  0
 32 86  1  0
 32 87  1  0
 33 88  1  0
 35 89  1  0
 35 90  1  0
 35 91  1  0
 36 92  1  0
 37 93  1  0
 37 94  1  0
 38 95  1  0
 38 96  1  0
 39 97  1  0
 39 98  1  0
 39 99  1  0
 40100  1  0
 42101  1  0
 43102  1  0
M  END
