
     RDKit          2D

 91104  0  0  0  0  0  0  0  0999 V2000
  -10.4652   31.3127   12.0299 C   0  0  0  0  0  0  0  0  0  0  0  0
   -9.1515   31.8386   11.5324 N   0  0  0  0  0  0  0  0  0  0  0  0
   -8.7202   33.2318   11.8829 C   0  0  0  0  0  0  0  0  0  0  0  0
   -8.2691   30.9712   10.6845 C   0  0  0  0  0  0  0  0  0  0  0  0
   -7.3867   30.1039    9.8365 C   0  0  0  0  0  0  0  0  0  0  0  0
   -6.2412   31.0444    9.6056 C   0  0  0  0  0  0  0  0  0  0  0  0
   -4.9022   31.3357    8.9955 C   0  0  0  0  0  0  0  0  0  0  0  0
   -4.8739   29.9591    8.4005 C   0  0  0  0  0  0  0  0  0  0  0  0
   -6.2129   29.6678    9.0106 C   0  0  0  0  0  0  0  0  0  0  0  0
   -6.2703   28.5966    8.5910 C   0  0  0  0  0  0  0  0  0  0  0  0
   -5.2592   28.6531    8.0615 C   0  0  0  0  0  0  0  0  0  0  0  0
   -5.3075   27.5915    7.6410 C   0  0  0  0  0  0  0  0  0  0  0  0
   -4.2873   27.6574    7.1105 C   0  0  0  0  0  0  0  0  0  0  0  0
   -5.6234   27.4908    7.7715 C   0  0  0  0  0  0  0  0  0  0  0  0
   -6.9226   26.9005    8.2339 C   0  0  0  0  0  0  0  0  0  0  0  0
   -8.2104   27.0280    8.9923 C   0  0  0  0  0  0  0  0  0  0  0  0
   -7.2482   28.1778    8.9498 C   0  0  0  0  0  0  0  0  0  0  0  0
   -5.9490   28.7681    8.4874 C   0  0  0  0  0  0  0  0  0  0  0  0
   -6.4738   29.9373    9.2668 N   0  0  0  0  0  0  0  0  0  0  0  0
   -5.6690   31.1999    9.3580 C   0  0  0  0  0  0  0  0  0  0  0  0
   -4.8643   32.4625    9.4491 C   0  0  0  0  0  0  0  0  0  0  0  0
   -5.9358   33.0843   10.2949 C   0  0  0  0  0  0  0  0  0  0  0  0
   -5.1310   34.3469   10.3861 C   0  0  0  0  0  0  0  0  0  0  0  0
   -5.3196   35.6793   11.0486 S   0  0  0  0  0  0  0  0  0  0  0  0
   -4.0596   33.7250    9.5403 O   0  0  0  0  0  0  0  0  0  0  0  0
   -4.0169   29.0644    7.5549 C   0  0  0  0  0  0  0  0  0  0  0  0
   -3.3285   30.3850    7.7341 O   0  0  0  0  0  0  0  0  0  0  0  0
   -2.1796   29.8992    6.9010 C   0  0  0  0  0  0  0  0  0  0  0  0
   -2.8680   28.5786    6.7217 C   0  0  0  0  0  0  0  0  0  0  0  0
   -3.5565   27.2580    6.5425 S   0  0  0  0  0  4  0  0  0  0  0  0
   -4.6267   27.8790    7.3903 O   0  0  0  0  0  0  0  0  0  0  0  0
   -4.4687   26.0672    6.5405 C   0  0  0  0  0  0  0  0  0  0  0  0
   -3.8181   24.9864    5.7288 C   0  0  0  0  0  0  0  0  0  0  0  0
   -5.0503   24.2035    6.0739 F   0  0  0  0  0  0  0  0  0  0  0  0
   -2.5040   25.5092    5.2292 C   0  0  0  0  0  0  0  0  0  0  0  0
   -1.2720   26.2922    4.8842 C   0  0  0  0  0  0  0  0  0  0  0  0
   -0.2936   27.4278    4.8267 C   0  0  0  0  0  0  0  0  0  0  0  0
    0.9881   27.2755    4.0625 C   0  0  0  0  0  0  0  0  0  0  0  0
    0.6847   28.5634    4.7692 C   0  0  0  0  0  0  0  0  0  0  0  0
    1.6630   29.6989    4.7117 C   0  0  0  0  0  0  0  0  0  0  0  0
    3.1281   29.4194    4.5526 N   0  0  0  0  0  0  0  0  0  0  0  0
    2.6414   30.8345    4.6542 C   0  0  0  0  0  0  0  0  0  0  0  0
    1.1762   31.1142    4.8133 O   0  0  0  0  0  0  0  0  0  0  0  0
   -0.5971   28.7157    5.5333 C   0  0  0  0  0  0  0  0  0  0  0  0
   -2.3422   26.9132    5.7320 C   0  0  0  0  0  0  0  0  0  0  0  0
  -11.7790   30.7868   12.5274 H   0  0  0  0  0  0  0  0  0  0  0  0
  -10.7253   32.6175   12.7226 H   0  0  0  0  0  0  0  0  0  0  0  0
  -10.2052   30.0078   11.3373 H   0  0  0  0  0  0  0  0  0  0  0  0
   -8.2887   34.6251   12.2334 H   0  0  0  0  0  0  0  0  0  0  0  0
   -9.9859   33.4273   12.6638 H   0  0  0  0  0  0  0  0  0  0  0  0
   -7.4112   33.2077   11.1506 H   0  0  0  0  0  0  0  0  0  0  0  0
   -9.2631   29.8532   10.7937 H   0  0  0  0  0  0  0  0  0  0  0  0
   -7.3900   32.1867   10.6794 H   0  0  0  0  0  0  0  0  0  0  0  0
   -8.4534   29.0591    9.9803 H   0  0  0  0  0  0  0  0  0  0  0  0
   -6.7692   32.2118   10.3859 H   0  0  0  0  0  0  0  0  0  0  0  0
   -3.5697   31.4570    8.3175 H   0  0  0  0  0  0  0  0  0  0  0  0
   -4.6057   32.7419    9.4253 H   0  0  0  0  0  0  0  0  0  0  0  0
   -8.0017   29.1656    9.7779 H   0  0  0  0  0  0  0  0  0  0  0  0
   -8.3578   28.0066    9.4849 H   0  0  0  0  0  0  0  0  0  0  0  0
   -8.0325   27.0114    8.8879 H   0  0  0  0  0  0  0  0  0  0  0  0
   -6.9704   25.7256    7.7655 H   0  0  0  0  0  0  0  0  0  0  0  0
   -6.0124   25.4246    7.1145 H   0  0  0  0  0  0  0  0  0  0  0  0
   -4.8989   25.6669    6.6072 H   0  0  0  0  0  0  0  0  0  0  0  0
   -3.4510   26.7412    6.2672 H   0  0  0  0  0  0  0  0  0  0  0  0
   -5.9912   26.0895    7.3828 H   0  0  0  0  0  0  0  0  0  0  0  0
   -7.2677   25.4972    7.8320 H   0  0  0  0  0  0  0  0  0  0  0  0
   -8.7961   25.6700    8.7411 H   0  0  0  0  0  0  0  0  0  0  0  0
   -9.2949   27.6270    9.8378 H   0  0  0  0  0  0  0  0  0  0  0  0
   -8.2752   28.8641    9.8007 H   0  0  0  0  0  0  0  0  0  0  0  0
   -7.5717   30.5142   10.1104 H   0  0  0  0  0  0  0  0  0  0  0  0
   -4.4323   30.9002    8.5638 H   0  0  0  0  0  0  0  0  0  0  0  0
   -6.6369   31.9730   10.2039 H   0  0  0  0  0  0  0  0  0  0  0  0
   -3.7027   31.9992    8.6207 H   0  0  0  0  0  0  0  0  0  0  0  0
   -6.9011   33.8554   11.1455 H   0  0  0  0  0  0  0  0  0  0  0  0
   -6.8651   31.9069   10.3075 H   0  0  0  0  0  0  0  0  0  0  0  0
   -1.0308   29.4133    6.0678 H   0  0  0  0  0  0  0  0  0  0  0  0
   -1.4913   31.2198    7.0802 H   0  0  0  0  0  0  0  0  0  0  0  0
   -1.7192   28.0928    5.8886 H   0  0  0  0  0  0  0  0  0  0  0  0
   -4.7914   29.2185    8.0449 H   0  0  0  0  0  0  0  0  0  0  0  0
   -5.7683   26.1452    7.2853 H   0  0  0  0  0  0  0  0  0  0  0  0
   -5.5647   25.0583    6.7158 H   0  0  0  0  0  0  0  0  0  0  0  0
   -3.4253   23.7420    4.9893 H   0  0  0  0  0  0  0  0  0  0  0  0
   -2.1111   24.2647    4.4897 H   0  0  0  0  0  0  0  0  0  0  0  0
   -0.5415   25.2769    4.0562 H   0  0  0  0  0  0  0  0  0  0  0  0
    0.8270   25.8712    3.5607 H   0  0  0  0  0  0  0  0  0  0  0  0
    2.3259   27.6110    3.4726 H   0  0  0  0  0  0  0  0  0  0  0  0
    4.2550   28.4409    4.4021 H   0  0  0  0  0  0  0  0  0  0  0  0
    3.6197   31.9702    4.5967 H   0  0  0  0  0  0  0  0  0  0  0  0
   -0.4359   30.1200    6.0351 H   0  0  0  0  0  0  0  0  0  0  0  0
   -1.9348   28.3802    6.1232 H   0  0  0  0  0  0  0  0  0  0  0  0
   -1.6539   28.2338    5.9113 H   0  0  0  0  0  0  0  0  0  0  0  0
  1  2  1  0
  2  3  1  0
  2  4  1  0
  4  5  1  0
  5  6  1  0
  6  7  1  0
  7  8  1  0
  8  9  1  0
  9 10  1  0
 10 11  1  0
 11 12  1  0
 12 13  1  0
 13 14  1  0
 14 15  1  0
 15 16  1  0
 16 17  1  0
 17 18  1  0
 18 19  1  0
 19 20  1  0
 20 21  1  0
 21 22  1  0
 22 23  1  0
 23 24  2  0
 23 25  1  0
 13 26  1  0
 26 27  1  0
 27 28  1  0
 28 29  1  0
 29 30  1  0
 30 31  1  0
 30 32  1  0
 32 33  1  0
 33 34  1  0
 33 35  1  0
 35 36  1  0
 36 37  1  0
 37 38  1  0
 38 39  1  0
 39 40  1  0
 40 41  1  0
 41 42  1  0
 42 43  1  0
 39 44  1  0
 36 45  1  0
  9  5  1  0
 18 14  1  0
 25 21  1  0
 29 26  1  0
 45 30  1  0
  9  6  1  0
 17 15  1  0
 45 35  1  0
 18  8  1  0
 39 37  1  0
 42 40  1  0
 26  8  1  0
 44 37  1  0
 43 40  1  0
  1 46  1  0
  1 47  1  0
  1 48  1  0
  3 49  1  0
  3 50  1  0
  3 51  1  0
  4 52  1  0
  4 53  1  0
  5 54  1  0
  6 55  1  0
  7 56  1  0
  7 57  1  0
 10 58  1  0
 10 59  1  0
 11 60  1  0
 11 61  1  0
 12 62  1  0
 12 63  1  0
 13 64  1  0
 14 65  1  0
 15 66  1  0
 16 67  1  0
 16 68  1  0
 17 69  1  0
 19 70  1  0
 20 71  1  0
 20 72  1  0
 21 73  1  0
 22 74  1  0
 22 75  1  0
 28 76  1  0
 28 77  1  0
 29 78  1  0
 31 79  1  0
 32 80  1  0
 32 81  1  0
 33 82  1  0
 35 83  1  0
 36 84  1  0
 38 85  1  0
 38 86  1  0
 41 87  1  0
 42 88  1  0
 44 89  1  0
 44 90  1  0
 45 91  1  0
M  END
