
     RDKit          2D

 62 65  0  0  0  0  0  0  0  0999 V2000
    3.7516   21.5860   11.6973 C   0  0  0  0  0  0  0  0  0  0  0  0
    3.3636   22.5814   10.6445 C   0  0  0  0  0  0  0  0  0  0  0  0
    2.9756   23.5769    9.5917 C   0  0  0  0  0  0  0  0  0  0  0  0
    2.5876   24.5724    8.5388 Si  0  0  0  0  0  4  0  0  0  0  0  0
    3.5274   25.4484    7.7647 C   0  0  0  0  0  0  0  0  0  0  0  0
    2.7123   26.2841    6.8226 C   0  0  0  0  0  0  0  0  0  0  0  0
    1.6546   26.9663    6.0068 C   0  0  0  0  0  0  0  0  0  0  0  0
    0.2110   26.6067    6.1987 C   0  0  0  0  0  0  0  0  0  0  0  0
    0.2533   25.5550    7.2673 C   0  0  0  0  0  0  0  0  0  0  0  0
   -1.2371   25.5468    7.0983 C   0  0  0  0  0  0  0  0  0  0  0  0
   -2.7275   25.5386    6.9292 C   0  0  0  0  0  0  0  0  0  0  0  0
   -2.8474   24.5317    8.0345 C   0  0  0  0  0  0  0  0  0  0  0  0
   -4.2179   25.5304    6.7601 C   0  0  0  0  0  0  0  0  0  0  0  0
   -5.0151   24.6767    5.8190 O   0  0  0  0  0  0  0  0  0  0  0  0
   -2.6076   26.5455    5.8239 C   0  0  0  0  0  0  0  0  0  0  0  0
   -2.4877   27.5524    4.7185 N   0  0  0  0  0  0  0  0  0  0  0  0
   -3.7187   28.0501    4.0206 C   0  0  0  0  0  0  0  0  0  0  0  0
   -2.8697   28.9263    3.1480 C   0  0  0  0  0  0  0  0  0  0  0  0
   -4.5676   27.1738    4.8932 C   0  0  0  0  0  0  0  0  0  0  0  0
   -5.4167   26.2975    5.7657 C   0  0  0  0  0  0  0  0  0  0  0  0
   -4.9496   28.5477    3.3227 C   0  0  0  0  0  0  0  0  0  0  0  0
   -6.1806   29.0453    2.6247 C   0  0  0  0  0  0  0  0  0  0  0  0
   -7.4115   29.5430    1.9267 O   0  0  0  0  0  0  0  0  0  0  0  0
    1.2688   25.9244    7.0146 C   0  0  0  0  0  0  0  0  0  0  0  0
    1.1918   24.8665    8.0752 C   0  0  0  0  0  0  0  0  0  0  0  0
    4.1396   20.5905   12.7502 H   0  0  0  0  0  0  0  0  0  0  0  0
    2.3083   21.2238   11.8869 H   0  0  0  0  0  0  0  0  0  0  0  0
    5.1948   21.9480   11.5078 H   0  0  0  0  0  0  0  0  0  0  0  0
    4.8006   22.7057   10.2325 H   0  0  0  0  0  0  0  0  0  0  0  0
    1.9267   22.4571   11.0565 H   0  0  0  0  0  0  0  0  0  0  0  0
    1.5322   23.2160    9.7824 H   0  0  0  0  0  0  0  0  0  0  0  0
    4.4190   23.9377    9.4010 H   0  0  0  0  0  0  0  0  0  0  0  0
    4.5852   24.7662    8.5805 H   0  0  0  0  0  0  0  0  0  0  0  0
    4.6883   26.1819    7.1611 H   0  0  0  0  0  0  0  0  0  0  0  0
    3.8733   27.0175    6.2191 H   0  0  0  0  0  0  0  0  0  0  0  0
    2.0403   28.0083    4.9991 H   0  0  0  0  0  0  0  0  0  0  0  0
   -0.6986   26.8114    5.8835 H   0  0  0  0  0  0  0  0  0  0  0  0
   -0.1931   24.5218    8.2590 H   0  0  0  0  0  0  0  0  0  0  0  0
   -1.1993   24.9508    7.7525 H   0  0  0  0  0  0  0  0  0  0  0  0
   -1.2789   26.2089    6.3714 H   0  0  0  0  0  0  0  0  0  0  0  0
   -2.9672   23.5248    9.1399 H   0  0  0  0  0  0  0  0  0  0  0  0
   -4.2020   24.9542    8.5207 H   0  0  0  0  0  0  0  0  0  0  0  0
   -2.0647   24.1373    7.9066 H   0  0  0  0  0  0  0  0  0  0  0  0
   -5.0035   25.8588    7.0043 H   0  0  0  0  0  0  0  0  0  0  0  0
   -3.9261   26.6514    5.5540 H   0  0  0  0  0  0  0  0  0  0  0  0
   -3.9524   26.4305    5.7965 H   0  0  0  0  0  0  0  0  0  0  0  0
   -1.0688   27.9520    4.4411 H   0  0  0  0  0  0  0  0  0  0  0  0
   -2.0206   29.8026    2.2754 H   0  0  0  0  0  0  0  0  0  0  0  0
   -3.9888   29.5355    2.3566 H   0  0  0  0  0  0  0  0  0  0  0  0
   -1.5435   28.5307    3.7268 H   0  0  0  0  0  0  0  0  0  0  0  0
   -5.8931   27.5625    4.3082 H   0  0  0  0  0  0  0  0  0  0  0  0
   -3.8794   26.3216    5.9178 H   0  0  0  0  0  0  0  0  0  0  0  0
   -6.2657   25.4213    6.6383 H   0  0  0  0  0  0  0  0  0  0  0  0
   -6.6480   26.7988    5.0709 H   0  0  0  0  0  0  0  0  0  0  0  0
   -4.4274   25.5992    6.6509 H   0  0  0  0  0  0  0  0  0  0  0  0
   -4.2569   29.4774    2.3709 H   0  0  0  0  0  0  0  0  0  0  0  0
   -5.9424   27.7393    4.1043 H   0  0  0  0  0  0  0  0  0  0  0  0
   -7.0298   28.1717    3.4996 H   0  0  0  0  0  0  0  0  0  0  0  0
   -5.3312   29.9190    1.7497 H   0  0  0  0  0  0  0  0  0  0  0  0
   -7.2916   30.5499    0.8214 H   0  0  0  0  0  0  0  0  0  0  0  0
   -0.3022   24.8136    7.9509 H   0  0  0  0  0  0  0  0  0  0  0  0
    0.8060   23.8246    9.0830 H   0  0  0  0  0  0  0  0  0  0  0  0
  1  2  1  0
  2  3  1  0
  3  4  1  0
  4  5  1  0
  5  6  1  0
  6  7  1  0
  7  8  1  0
  8  9  1  0
  9 10  1  0
 10 11  1  0
 11 12  1  0
 11 13  1  0
 13 14  2  0
 11 15  1  0
 15 16  1  0
 16 17  1  0
 17 18  1  0
 17 19  1  0
 19 20  1  0
 17 21  1  0
 21 22  1  0
 22 23  1  0
  8 24  1  0
 24 25  1  0
  9  4  1  0
 25  4  1  0
 24  6  1  0
 24  7  1  0
  1 26  1  0
  1 27  1  0
  1 28  1  0
  2 29  1  0
  2 30  1  0
  3 31  1  0
  3 32  1  0
  5 33  1  0
  5 34  1  0
  6 35  1  0
  7 36  1  0
  8 37  1  0
  9 38  1  0
 10 39  1  0
 10 40  1  0
 12 41  1  0
 12 42  1  0
 12 43  1  0
 13 44  1  0
 15 45  1  0
 15 46  1  0
 16 47  1  0
 18 48  1  0
 18 49  1  0
 18 50  1  0
 19 51  1  0
 19 52  1  0
 20 53  1  0
 20 54  1  0
 20 55  1  0
 21 56  1  0
 21 57  1  0
 22 58  1  0
 22 59  1  0
 23 60  1  0
 25 61  1  0
 25 62  1  0
M  END
