
     RDKit          2D

 70 71  0  0  0  0  0  0  0  0999 V2000
   -5.7047   27.1815    6.1273 C   0  0  0  0  0  0  0  0  0  0  0  0
   -4.2164   27.2042    6.3132 C   0  0  0  0  0  0  0  0  0  0  0  0
   -2.7282   27.2269    6.4990 C   0  0  0  0  0  0  0  0  0  0  0  0
   -1.2399   27.2495    6.6848 C   0  0  0  0  0  0  0  0  0  0  0  0
    0.2483   27.2722    6.8706 C   0  0  0  0  0  0  0  0  0  0  0  0
   -1.2477   25.7693    6.9273 C   0  0  0  0  0  0  0  0  0  0  0  0
   -1.2554   24.2891    7.1698 C   0  0  0  0  0  0  0  0  0  0  0  0
   -1.2632   22.8088    7.4123 C   0  0  0  0  0  0  0  0  0  0  0  0
   -1.5802   21.3561    7.6109 C   0  0  0  0  0  0  0  0  0  0  0  0
   -0.2951   20.6357    7.8932 O   0  0  0  0  0  0  0  0  0  0  0  0
    0.8161   21.6430    7.8691 C   0  0  0  0  0  0  0  0  0  0  0  0
    2.1088   22.4028    7.9088 O   0  0  0  0  0  0  0  0  0  0  0  0
    1.6845   20.4588    8.1745 C   0  0  0  0  0  0  0  0  0  0  0  0
    2.5531   19.2746    8.4800 C   0  0  0  0  0  0  0  0  0  0  0  0
    3.4216   18.0904    8.7855 C   0  0  0  0  0  0  0  0  0  0  0  0
    4.2901   16.9062    9.0909 O   0  0  0  0  0  0  0  0  0  0  0  0
    0.2178   22.9861    7.5719 C   0  0  0  0  0  0  0  0  0  0  0  0
   -2.7333   28.7202    6.3581 C   0  0  0  0  0  0  0  0  0  0  0  0
   -4.2220   28.6979    6.1755 O   0  0  0  0  0  0  0  0  0  0  0  0
   -2.7384   30.2136    6.2172 C   0  0  0  0  0  0  0  0  0  0  0  0
   -2.7436   31.7070    6.0764 O   0  0  0  0  0  0  0  0  0  0  0  0
   -1.2502   30.2363    6.4030 O   0  0  0  0  0  0  0  0  0  0  0  0
   -4.2267   30.1909    6.0315 O   0  0  0  0  0  0  0  0  0  0  0  0
   -4.9754   31.4729    5.8165 C   0  0  0  0  0  0  0  0  0  0  0  0
   -5.4402   32.8861    5.6249 C   0  0  0  0  0  0  0  0  0  0  0  0
   -6.9284   32.8635    5.4392 C   0  0  0  0  0  0  0  0  0  0  0  0
   -7.3834   31.4363    5.5160 C   0  0  0  0  0  0  0  0  0  0  0  0
   -8.7451   32.0230    5.2889 N   0  0  0  0  0  0  0  0  0  0  0  0
   -6.1764   30.5768    5.7492 C   0  0  0  0  0  0  0  0  0  0  0  0
   -7.1930   27.1589    5.9415 H   0  0  0  0  0  0  0  0  0  0  0  0
   -5.6975   28.6625    5.8894 H   0  0  0  0  0  0  0  0  0  0  0  0
   -5.7119   25.7006    6.3653 H   0  0  0  0  0  0  0  0  0  0  0  0
   -4.3970   27.9540    6.1112 H   0  0  0  0  0  0  0  0  0  0  0  0
   -4.2373   25.7446    6.6584 H   0  0  0  0  0  0  0  0  0  0  0  0
   -2.9045   25.7419    6.6162 H   0  0  0  0  0  0  0  0  0  0  0  0
   -1.0508   28.7215    6.4668 H   0  0  0  0  0  0  0  0  0  0  0  0
    1.7367   27.2948    7.0565 H   0  0  0  0  0  0  0  0  0  0  0  0
    0.2563   28.7521    6.6260 H   0  0  0  0  0  0  0  0  0  0  0  0
    0.4218   25.8061    7.1361 H   0  0  0  0  0  0  0  0  0  0  0  0
    0.1236   25.4885    6.3880 H   0  0  0  0  0  0  0  0  0  0  0  0
   -2.6208   25.6892    7.5257 H   0  0  0  0  0  0  0  0  0  0  0  0
    0.0004   24.5926    7.9321 H   0  0  0  0  0  0  0  0  0  0  0  0
   -2.5196   24.1650    6.3721 H   0  0  0  0  0  0  0  0  0  0  0  0
   -2.7425   22.9410    7.2021 H   0  0  0  0  0  0  0  0  0  0  0  0
   -2.9932   21.7921    7.3591 H   0  0  0  0  0  0  0  0  0  0  0  0
   -2.1926   19.9947    7.7568 H   0  0  0  0  0  0  0  0  0  0  0  0
    2.2979   23.8748    7.6907 H   0  0  0  0  0  0  0  0  0  0  0  0
    2.8917   21.3489    8.1928 H   0  0  0  0  0  0  0  0  0  0  0  0
    0.4773   19.5687    8.1562 H   0  0  0  0  0  0  0  0  0  0  0  0
    1.3475   18.3825    8.4495 H   0  0  0  0  0  0  0  0  0  0  0  0
    3.7586   20.1666    8.5105 H   0  0  0  0  0  0  0  0  0  0  0  0
    2.2506   17.3932    9.4120 H   0  0  0  0  0  0  0  0  0  0  0  0
    4.5927   18.7876    8.1589 H   0  0  0  0  0  0  0  0  0  0  0  0
    3.6777   15.5447    9.2369 H   0  0  0  0  0  0  0  0  0  0  0  0
    1.5699   23.6323    7.6379 H   0  0  0  0  0  0  0  0  0  0  0  0
    0.0958   24.4587    7.3141 H   0  0  0  0  0  0  0  0  0  0  0  0
   -1.2564   28.9245    6.5222 H   0  0  0  0  0  0  0  0  0  0  0  0
   -5.3822   29.6202    5.9450 H   0  0  0  0  0  0  0  0  0  0  0  0
   -1.4573   32.4733    6.1669 H   0  0  0  0  0  0  0  0  0  0  0  0
   -0.5105   31.5408    6.3736 H   0  0  0  0  0  0  0  0  0  0  0  0
   -3.6178   32.1010    5.9288 H   0  0  0  0  0  0  0  0  0  0  0  0
   -3.9854   33.2188    5.7773 H   0  0  0  0  0  0  0  0  0  0  0  0
   -5.6008   34.3690    5.4652 H   0  0  0  0  0  0  0  0  0  0  0  0
   -6.7779   34.3510    5.3183 H   0  0  0  0  0  0  0  0  0  0  0  0
   -8.3373   33.3283    5.2177 H   0  0  0  0  0  0  0  0  0  0  0  0
   -8.1231   30.1317    5.5453 H   0  0  0  0  0  0  0  0  0  0  0  0
   -9.9462   31.1269    5.2216 H   0  0  0  0  0  0  0  0  0  0  0  0
   -9.0849   33.4729    5.1097 H   0  0  0  0  0  0  0  0  0  0  0  0
   -7.1684   29.4519    5.7297 H   0  0  0  0  0  0  0  0  0  0  0  0
   -5.3185   29.3665    5.9712 H   0  0  0  0  0  0  0  0  0  0  0  0
  1  2  1  0
  2  3  1  0
  3  4  1  0
  4  5  1  0
  4  6  1  0
  6  7  1  0
  7  8  1  0
  8  9  1  0
  9 10  1  0
 10 11  1  0
 11 12  1  0
 11 13  1  0
 13 14  1  0
 14 15  1  0
 15 16  1  0
 11 17  1  0
  3 18  1  0
 18 19  1  0
 18 20  1  0
 20 21  1  0
 20 22  1  0
 20 23  1  0
 23 24  1  0
 24 25  1  0
 25 26  1  0
 26 27  1  0
 27 28  1  0
 27 29  1  0
 17  8  1  0
 29 24  1  0
  1 30  1  0
  1 31  1  0
  1 32  1  0
  2 33  1  0
  2 34  1  0
  3 35  1  0
  4 36  1  0
  5 37  1  0
  5 38  1  0
  5 39  1  0
  6 40  1  0
  6 41  1  0
  7 42  1  0
  7 43  1  0
  8 44  1  0
  9 45  1  0
  9 46  1  0
 12 47  1  0
 13 48  1  0
 13 49  1  0
 14 50  1  0
 14 51  1  0
 15 52  1  0
 15 53  1  0
 16 54  1  0
 17 55  1  0
 17 56  1  0
 18 57  1  0
 19 58  1  0
 21 59  1  0
 22 60  1  0
 24 61  1  0
 25 62  1  0
 25 63  1  0
 26 64  1  0
 26 65  1  0
 27 66  1  0
 28 67  1  0
 28 68  1  0
 29 69  1  0
 29 70  1  0
M  END
