
     RDKit          2D

 39 42  0  0  0  0  0  0  0  0999 V2000
   -0.9745   24.6486    7.9391 C   0  0  0  0  0  0  0  0  0  0  0  0
   -2.4167   24.2414    8.0040 C   0  0  0  0  0  0  0  0  0  0  0  0
   -3.8590   23.8342    8.0690 C   0  0  0  0  0  0  0  0  0  0  0  0
   -3.6351   23.2596    9.4365 C   0  0  0  0  0  0  0  0  0  0  0  0
   -5.3011   23.4269    8.1340 C   0  0  0  0  0  0  0  0  0  0  0  0
   -5.5249   24.0015    6.7666 C   0  0  0  0  0  0  0  0  0  0  0  0
   -4.9977   24.7027    5.5500 C   0  0  0  0  0  0  0  0  0  0  0  0
   -4.0368   25.3840    4.6212 O   0  0  0  0  0  0  0  0  0  0  0  0
   -4.5076   25.8792    3.2859 C   0  0  0  0  0  0  0  0  0  0  0  0
   -4.9786   26.3743    1.9505 C   0  0  0  0  0  0  0  0  0  0  0  0
   -6.4208   25.9670    2.0155 C   0  0  0  0  0  0  0  0  0  0  0  0
   -7.3357   26.2610    0.8638 O   0  0  0  0  0  0  0  0  0  0  0  0
   -6.9480   25.2658    3.2322 O   0  0  0  0  0  0  0  0  0  0  0  0
   -3.6999   26.9535    1.4218 C   0  0  0  0  0  0  0  0  0  0  0  0
   -3.6698   27.5901    0.0640 C   0  0  0  0  0  0  0  0  0  0  0  0
   -2.2277   27.9973   -0.0009 C   0  0  0  0  0  0  0  0  0  0  0  0
   -4.9485   27.0109    0.5927 C   0  0  0  0  0  0  0  0  0  0  0  0
   -4.0828   24.4087    6.7017 P   0  0  0  0  0  0  0  0  0  0  0  0
    0.4676   25.0559    7.8741 H   0  0  0  0  0  0  0  0  0  0  0  0
   -1.3366   25.7862    7.0310 H   0  0  0  0  0  0  0  0  0  0  0  0
   -0.6124   23.5110    8.8473 H   0  0  0  0  0  0  0  0  0  0  0  0
   -2.6386   24.8086    6.6333 H   0  0  0  0  0  0  0  0  0  0  0  0
   -2.1828   23.9383    8.8028 H   0  0  0  0  0  0  0  0  0  0  0  0
   -3.4113   22.6850   10.8038 H   0  0  0  0  0  0  0  0  0  0  0  0
   -2.7747   23.4606    9.4984 H   0  0  0  0  0  0  0  0  0  0  0  0
   -4.4633   22.9759    9.5712 H   0  0  0  0  0  0  0  0  0  0  0  0
   -5.2737   23.0609    8.9401 H   0  0  0  0  0  0  0  0  0  0  0  0
   -6.7434   23.0197    8.1990 H   0  0  0  0  0  0  0  0  0  0  0  0
   -6.9760   23.7569    6.4754 H   0  0  0  0  0  0  0  0  0  0  0  0
   -6.2463   24.7601    4.7208 H   0  0  0  0  0  0  0  0  0  0  0  0
   -5.8889   25.3777    3.5871 H   0  0  0  0  0  0  0  0  0  0  0  0
   -3.1264   26.3806    2.9847 H   0  0  0  0  0  0  0  0  0  0  0  0
   -8.3902   24.8586    3.2971 H   0  0  0  0  0  0  0  0  0  0  0  0
   -2.4512   26.8961    2.2511 H   0  0  0  0  0  0  0  0  0  0  0  0
   -4.1408   28.0852   -1.2714 H   0  0  0  0  0  0  0  0  0  0  0  0
   -0.7854   28.4046   -0.0659 H   0  0  0  0  0  0  0  0  0  0  0  0
   -2.4565   28.5909   -1.3594 H   0  0  0  0  0  0  0  0  0  0  0  0
   -1.9989   27.4038    1.3575 H   0  0  0  0  0  0  0  0  0  0  0  0
   -6.1972   27.0682   -0.2365 H   0  0  0  0  0  0  0  0  0  0  0  0
  1  2  1  0
  2  3  1  0
  3  4  1  0
  3  5  1  0
  5  6  1  0
  6  7  1  0
  7  8  1  0
  8  9  1  0
  9 10  1  0
 10 11  1  0
 11 12  2  0
 11 13  1  0
 10 14  1  0
 14 15  1  0
 15 16  1  0
 15 17  1  0
  7 18  1  0
 18  3  1  0
 18  6  1  0
 17 10  1  0
 17 14  1  0
  1 19  1  0
  1 20  1  0
  1 21  1  0
  2 22  1  0
  2 23  1  0
  4 24  1  0
  4 25  1  0
  4 26  1  0
  5 27  1  0
  5 28  1  0
  6 29  1  0
  7 30  1  0
  9 31  1  0
  9 32  1  0
 13 33  1  0
 14 34  1  0
 15 35  1  0
 16 36  1  0
 16 37  1  0
 16 38  1  0
 17 39  1  0
M  END
