
     RDKit          2D

 48 50  0  0  0  0  0  0  0  0999 V2000
    3.7567   27.3743    8.9231 C   0  0  0  0  0  0  0  0  0  0  0  0
    3.8373   26.2736    7.9073 C   0  0  0  0  0  0  0  0  0  0  0  0
    3.9180   25.1729    6.8914 C   0  0  0  0  0  0  0  0  0  0  0  0
    3.9986   24.0722    5.8755 C   0  0  0  0  0  0  0  0  0  0  0  0
    4.5324   23.2119    4.7688 C   0  0  0  0  0  0  0  0  0  0  0  0
    5.3314   24.3820    5.2610 C   0  0  0  0  0  0  0  0  0  0  0  0
    2.3577   26.0568    8.0246 N   0  0  0  0  0  0  0  0  0  0  0  0
    1.4173   24.9436    7.6691 C   0  0  0  0  0  0  0  0  0  0  0  0
    0.2651   25.7503    8.1906 C   0  0  0  0  0  0  0  0  0  0  0  0
   -1.1211   26.1735    8.5767 C   0  0  0  0  0  0  0  0  0  0  0  0
   -1.0375   27.5483    9.1708 C   0  0  0  0  0  0  0  0  0  0  0  0
   -2.5229   27.4029    9.3204 C   0  0  0  0  0  0  0  0  0  0  0  0
   -4.0083   27.2575    9.4701 N   0  0  0  0  0  0  0  0  0  0  0  0
   -4.6887   26.0009    9.0139 C   0  0  0  0  0  0  0  0  0  0  0  0
   -5.3689   24.7443    8.5578 N   0  0  0  0  0  0  0  0  0  0  0  0
   -4.5638   23.6331    7.9520 C   0  0  0  0  0  0  0  0  0  0  0  0
   -3.7588   22.5218    7.3462 O   0  0  0  0  0  0  0  0  0  0  0  0
    0.4005   27.9748    9.1519 C   0  0  0  0  0  0  0  0  0  0  0  0
    1.2056   26.8636    8.5461 C   0  0  0  0  0  0  0  0  0  0  0  0
    3.6760   28.4749    9.9390 H   0  0  0  0  0  0  0  0  0  0  0  0
    5.2544   27.4459    8.9644 H   0  0  0  0  0  0  0  0  0  0  0  0
    2.2602   27.4372    9.0060 H   0  0  0  0  0  0  0  0  0  0  0  0
    5.3169   26.4903    7.7899 H   0  0  0  0  0  0  0  0  0  0  0  0
    4.8969   25.9458    6.3748 H   0  0  0  0  0  0  0  0  0  0  0  0
    3.2043   24.6094    7.2681 H   0  0  0  0  0  0  0  0  0  0  0  0
    2.6938   23.3800    6.1372 H   0  0  0  0  0  0  0  0  0  0  0  0
    3.4131   22.2210    4.6461 H   0  0  0  0  0  0  0  0  0  0  0  0
    5.4550   22.6957    3.7046 H   0  0  0  0  0  0  0  0  0  0  0  0
    6.5315   24.2722    4.3678 H   0  0  0  0  0  0  0  0  0  0  0  0
    5.8139   25.4726    5.8939 H   0  0  0  0  0  0  0  0  0  0  0  0
    0.4768   23.8304    7.3136 H   0  0  0  0  0  0  0  0  0  0  0  0
    2.0923   24.3292    7.3011 H   0  0  0  0  0  0  0  0  0  0  0  0
   -0.4834   24.5246    7.7579 H   0  0  0  0  0  0  0  0  0  0  0  0
   -1.5116   24.8284    8.0398 H   0  0  0  0  0  0  0  0  0  0  0  0
   -1.9109   26.1598    8.6843 H   0  0  0  0  0  0  0  0  0  0  0  0
   -1.2644   28.8927    9.7962 H   0  0  0  0  0  0  0  0  0  0  0  0
   -2.5958   28.7725    9.9279 H   0  0  0  0  0  0  0  0  0  0  0  0
   -2.5807   26.6711    9.0097 H   0  0  0  0  0  0  0  0  0  0  0  0
   -4.8134   28.3687   10.0759 H   0  0  0  0  0  0  0  0  0  0  0  0
   -6.0113   26.5590    9.4491 H   0  0  0  0  0  0  0  0  0  0  0  0
   -3.3661   25.4428    8.5788 H   0  0  0  0  0  0  0  0  0  0  0  0
   -6.8544   24.5989    8.7074 H   0  0  0  0  0  0  0  0  0  0  0  0
   -5.8145   22.8244    7.7733 H   0  0  0  0  0  0  0  0  0  0  0  0
   -3.3132   24.4418    8.1306 H   0  0  0  0  0  0  0  0  0  0  0  0
   -4.4391   21.2652    6.8900 H   0  0  0  0  0  0  0  0  0  0  0  0
   -0.1270   29.2300    9.7813 H   0  0  0  0  0  0  0  0  0  0  0  0
    1.7282   28.6636    9.2645 H   0  0  0  0  0  0  0  0  0  0  0  0
    2.1856   27.9480    8.8832 H   0  0  0  0  0  0  0  0  0  0  0  0
  1  2  1  0
  2  3  1  0
  3  4  1  0
  4  5  1  0
  5  6  1  0
  2  7  1  0
  7  8  1  0
  8  9  1  0
  9 10  1  0
 10 11  1  0
 11 12  1  0
 12 13  1  0
 13 14  1  0
 14 15  1  0
 15 16  1  0
 16 17  1  0
 11 18  1  0
 18 19  1  0
  6  4  1  0
 19  7  1  0
 19  9  1  0
  1 20  1  0
  1 21  1  0
  1 22  1  0
  2 23  1  0
  3 24  1  0
  3 25  1  0
  4 26  1  0
  5 27  1  0
  5 28  1  0
  6 29  1  0
  6 30  1  0
  8 31  1  0
  8 32  1  0
  9 33  1  0
 10 34  1  0
 10 35  1  0
 11 36  1  0
 12 37  1  0
 12 38  1  0
 13 39  1  0
 14 40  1  0
 14 41  1  0
 15 42  1  0
 16 43  1  0
 16 44  1  0
 17 45  1  0
 18 46  1  0
 18 47  1  0
 19 48  1  0
M  END
