
     RDKit          2D

 57 59  0  0  0  0  0  0  0  0999 V2000
    2.9237   27.1966    3.5277 C   0  0  0  0  0  0  0  0  0  0  0  0
    1.7521   27.3361    4.4540 C   0  0  0  0  0  0  0  0  0  0  0  0
    0.5805   27.4756    5.3802 C   0  0  0  0  0  0  0  0  0  0  0  0
   -0.5911   27.6151    6.3065 C   0  0  0  0  0  0  0  0  0  0  0  0
   -0.0123   28.6098    7.2685 O   0  0  0  0  0  0  0  0  0  0  0  0
   -1.8450   26.8318    6.0531 O   0  0  0  0  0  0  0  0  0  0  0  0
   -3.0165   26.9713    6.9793 N   0  0  0  0  0  0  0  0  0  0  0  0
   -2.9342   27.8941    8.1589 C   0  0  0  0  0  0  0  0  0  0  0  0
   -1.5695   28.0999    7.5716 O   0  0  0  0  0  0  0  0  0  0  0  0
   -4.1059   28.0336    9.0852 C   0  0  0  0  0  0  0  0  0  0  0  0
   -5.3597   27.2503    8.8318 N   0  0  0  0  0  0  0  0  0  0  0  0
   -5.4420   26.3274    7.6521 N   0  0  0  0  0  0  0  0  0  0  0  0
   -4.1881   27.1108    7.9055 C   0  0  0  0  0  0  0  0  0  0  0  0
   -2.7947   27.6371    7.7278 C   0  0  0  0  0  0  0  0  0  0  0  0
   -1.4014   28.1634    7.5501 C   0  0  0  0  0  0  0  0  0  0  0  0
   -0.0081   28.6897    7.3724 C   0  0  0  0  0  0  0  0  0  0  0  0
   -2.6318   26.7910    6.5000 N   0  0  0  0  0  0  0  0  0  0  0  0
   -1.3436   26.8238    5.7322 C   0  0  0  0  0  0  0  0  0  0  0  0
   -0.0554   26.8565    4.9643 O   0  0  0  0  0  0  0  0  0  0  0  0
    1.2390   27.5956    5.1319 F   0  0  0  0  0  0  0  0  0  0  0  0
   -1.9628   25.9802    4.6574 O   0  0  0  0  0  0  0  0  0  0  0  0
   -1.1567   25.5869    3.4551 C   0  0  0  0  0  0  0  0  0  0  0  0
   -0.3507   25.1935    2.2528 O   0  0  0  0  0  0  0  0  0  0  0  0
   -4.2704   26.1880    6.7258 C   0  0  0  0  0  0  0  0  0  0  0  0
   -5.0418   25.2029    5.8984 C   0  0  0  0  0  0  0  0  0  0  0  0
   -3.6415   25.5746    5.5100 N   0  0  0  0  0  0  0  0  0  0  0  0
   -2.4699   25.4352    4.5838 C   0  0  0  0  0  0  0  0  0  0  0  0
   -3.2405   24.4484    3.7577 F   0  0  0  0  0  0  0  0  0  0  0  0
   -1.2983   25.2956    3.6575 O   0  0  0  0  0  0  0  0  0  0  0  0
   -1.3806   24.3728    2.4778 O   0  0  0  0  0  0  0  0  0  0  0  0
    4.0952   27.0571    2.6015 H   0  0  0  0  0  0  0  0  0  0  0  0
    3.6969   28.1780    4.3579 H   0  0  0  0  0  0  0  0  0  0  0  0
    2.1505   26.2153    2.6975 H   0  0  0  0  0  0  0  0  0  0  0  0
    2.5273   28.3131    5.2874 H   0  0  0  0  0  0  0  0  0  0  0  0
    0.9769   26.3592    3.6206 H   0  0  0  0  0  0  0  0  0  0  0  0
    1.3518   28.4611    6.2073 H   0  0  0  0  0  0  0  0  0  0  0  0
    0.2804   26.5056    4.2760 H   0  0  0  0  0  0  0  0  0  0  0  0
   -2.7061   28.8507    9.2916 H   0  0  0  0  0  0  0  0  0  0  0  0
   -0.8817   29.0923    8.4616 H   0  0  0  0  0  0  0  0  0  0  0  0
   -4.0236   28.9564   10.2649 H   0  0  0  0  0  0  0  0  0  0  0  0
   -6.5313   27.3898    9.7580 H   0  0  0  0  0  0  0  0  0  0  0  0
   -3.6257   26.4573    6.6781 H   0  0  0  0  0  0  0  0  0  0  0  0
   -2.7867   28.5410    8.9248 H   0  0  0  0  0  0  0  0  0  0  0  0
   -1.3921   29.0646    8.7492 H   0  0  0  0  0  0  0  0  0  0  0  0
   -0.2436   28.0075    6.6093 H   0  0  0  0  0  0  0  0  0  0  0  0
    1.3853   29.2160    7.1947 H   0  0  0  0  0  0  0  0  0  0  0  0
    0.0010   29.5917    8.5709 H   0  0  0  0  0  0  0  0  0  0  0  0
    0.4863   27.9980    6.1367 H   0  0  0  0  0  0  0  0  0  0  0  0
   -3.3819   25.8022    5.6575 H   0  0  0  0  0  0  0  0  0  0  0  0
   -0.3038   27.6229    6.4603 H   0  0  0  0  0  0  0  0  0  0  0  0
   -2.4099   25.5331    2.6325 H   0  0  0  0  0  0  0  0  0  0  0  0
    0.1854   25.5922    4.1250 H   0  0  0  0  0  0  0  0  0  0  0  0
   -0.8082   24.3602    1.0924 H   0  0  0  0  0  0  0  0  0  0  0  0
   -6.3296   25.1693    6.6670 H   0  0  0  0  0  0  0  0  0  0  0  0
   -5.3660   24.2296    4.8041 H   0  0  0  0  0  0  0  0  0  0  0  0
   -1.1133   26.0751    4.5777 H   0  0  0  0  0  0  0  0  0  0  0  0
   -0.3118   24.1143    1.4576 H   0  0  0  0  0  0  0  0  0  0  0  0
  1  2  1  0
  2  3  1  0
  3  4  1  0
  4  5  2  0
  4  6  1  0
  6  7  1  0
  7  8  1  0
  8  9  1  0
  8 10  1  0
 10 11  1  0
 11 12  1  0
 12 13  1  0
 13 14  1  0
 14 15  1  0
 15 16  1  0
 14 17  1  0
 17 18  1  0
 18 19  1  0
 19 20  1  0
 18 21  1  0
 21 22  1  0
 22 23  1  0
 12 24  1  0
 24 25  1  0
 25 26  1  0
 26 27  1  0
 27 28  1  0
 27 29  1  0
 29 30  1  0
 24  7  1  0
 13 10  1  0
 26 24  1  0
  1 31  1  0
  1 32  1  0
  1 33  1  0
  2 34  1  0
  2 35  1  0
  3 36  1  0
  3 37  1  0
  8 38  1  0
  9 39  1  0
 10 40  1  0
 11 41  1  0
 13 42  1  0
 14 43  1  0
 15 44  1  0
 15 45  1  0
 16 46  1  0
 16 47  1  0
 16 48  1  0
 17 49  1  0
 18 50  1  0
 22 51  1  0
 22 52  1  0
 23 53  1  0
 25 54  1  0
 25 55  1  0
 27 56  1  0
 30 57  1  0
M  END
