
     RDKit          2D

 56 60  0  0  0  0  0  0  0  0999 V2000
   19.6934  -20.4945   -1.9134 C   0  0  0  0  0  0  0  0  0  0  0  0
   18.6549  -21.2753   -2.6631 C   0  0  0  0  0  0  0  0  0  0  0  0
   18.4173  -22.7186   -2.3314 C   0  0  0  0  0  0  0  0  0  0  0  0
   18.1798  -24.1621   -1.9997 C   0  0  0  0  0  0  0  0  0  0  0  0
   17.9422  -25.6055   -1.6679 C   0  0  0  0  0  0  0  0  0  0  0  0
   17.8540  -20.6125   -3.7444 C   0  0  0  0  0  0  0  0  0  0  0  0
   17.0530  -19.9498   -4.8258 C   0  0  0  0  0  0  0  0  0  0  0  0
   15.9699  -19.6420   -3.8348 O   0  0  0  0  0  0  0  0  0  0  0  0
   16.2522  -19.2870   -5.9070 C   0  0  0  0  0  0  0  0  0  0  0  0
   15.4512  -18.6242   -6.9884 N   0  0  0  0  0  0  0  0  0  0  0  0
   15.6148  -18.4400   -8.4680 C   0  0  0  0  0  0  0  0  0  0  0  0
   15.1083  -17.9039   -9.7741 C   0  0  0  0  0  0  0  0  0  0  0  0
   16.2066  -18.3624  -10.6873 C   0  0  0  0  0  0  0  0  0  0  0  0
   17.3047  -18.8208  -11.6004 C   0  0  0  0  0  0  0  0  0  0  0  0
   18.4030  -19.2793  -12.5135 C   0  0  0  0  0  0  0  0  0  0  0  0
   19.5012  -19.7378  -13.4266 C   0  0  0  0  0  0  0  0  0  0  0  0
   20.5993  -20.1962  -14.3397 C   0  0  0  0  0  0  0  0  0  0  0  0
   21.6976  -20.6547  -15.2528 S   0  0  0  0  0  0  0  0  0  0  0  0
   22.8597  -21.4253  -14.7001 C   0  0  0  0  0  0  0  0  0  0  0  0
   22.8028  -22.9228  -14.6328 O   0  0  0  0  0  0  0  0  0  0  0  0
   14.3185  -17.6869   -8.5176 C   0  0  0  0  0  0  0  0  0  0  0  0
   13.1141  -17.1269   -7.8207 C   0  0  0  0  0  0  0  0  0  0  0  0
   11.9096  -16.5668   -7.1238 C   0  0  0  0  0  0  0  0  0  0  0  0
   12.9505  -17.3111   -6.3411 C   0  0  0  0  0  0  0  0  0  0  0  0
   14.1549  -17.8711   -7.0380 C   0  0  0  0  0  0  0  0  0  0  0  0
   20.4943  -21.1572   -0.8320 H   0  0  0  0  0  0  0  0  0  0  0  0
   19.9310  -19.0510   -2.2451 H   0  0  0  0  0  0  0  0  0  0  0  0
   17.3490  -22.7844   -3.3823 H   0  0  0  0  0  0  0  0  0  0  0  0
   19.4856  -22.6530   -1.2805 H   0  0  0  0  0  0  0  0  0  0  0  0
   17.0454  -24.2009   -2.9804 H   0  0  0  0  0  0  0  0  0  0  0  0
   19.3141  -24.1234   -1.0189 H   0  0  0  0  0  0  0  0  0  0  0  0
   17.7045  -27.0490   -1.3363 H   0  0  0  0  0  0  0  0  0  0  0  0
   16.8664  -25.6682   -2.7114 H   0  0  0  0  0  0  0  0  0  0  0  0
   19.0179  -25.5429   -0.6246 H   0  0  0  0  0  0  0  0  0  0  0  0
   18.8863  -21.0147   -4.7556 H   0  0  0  0  0  0  0  0  0  0  0  0
   16.8216  -20.2103   -2.7332 H   0  0  0  0  0  0  0  0  0  0  0  0
   18.1362  -20.2576   -5.8167 H   0  0  0  0  0  0  0  0  0  0  0  0
   14.6784  -18.9274   -4.1019 H   0  0  0  0  0  0  0  0  0  0  0  0
   17.2859  -19.6867   -6.9178 H   0  0  0  0  0  0  0  0  0  0  0  0
   15.1284  -18.8095   -5.0357 H   0  0  0  0  0  0  0  0  0  0  0  0
   16.9213  -19.1601   -8.6248 H   0  0  0  0  0  0  0  0  0  0  0  0
   14.2205  -17.2086  -10.7632 H   0  0  0  0  0  0  0  0  0  0  0  0
   15.4993  -17.7361  -11.8524 H   0  0  0  0  0  0  0  0  0  0  0  0
   17.0424  -19.0398   -9.6421 H   0  0  0  0  0  0  0  0  0  0  0  0
   16.5967  -18.1960  -12.7658 H   0  0  0  0  0  0  0  0  0  0  0  0
   18.0129  -19.4457  -10.4350 H   0  0  0  0  0  0  0  0  0  0  0  0
   19.1152  -19.8969  -11.3467 H   0  0  0  0  0  0  0  0  0  0  0  0
   17.6907  -18.6617  -13.6802 H   0  0  0  0  0  0  0  0  0  0  0  0
   18.7932  -19.1128  -14.5919 H   0  0  0  0  0  0  0  0  0  0  0  0
   20.2091  -20.3628  -12.2612 H   0  0  0  0  0  0  0  0  0  0  0  0
   21.3271  -20.7861  -13.1682 H   0  0  0  0  0  0  0  0  0  0  0  0
   19.8716  -19.6064  -15.5112 H   0  0  0  0  0  0  0  0  0  0  0  0
   24.0789  -20.6986  -14.2147 H   0  0  0  0  0  0  0  0  0  0  0  0
   11.2017  -15.9416   -8.2892 H   0  0  0  0  0  0  0  0  0  0  0  0
   10.9510  -16.2238   -6.0222 H   0  0  0  0  0  0  0  0  0  0  0  0
   12.7868  -17.4953   -4.8615 H   0  0  0  0  0  0  0  0  0  0  0  0
  1  2  2  3
  2  3  1  0
  3  4  1  0
  4  5  1  0
  2  6  1  0
  6  7  1  0
  7  8  1  0
  7  9  1  0
  9 10  1  0
 10 11  1  0
 11 12  1  0
 12 13  1  0
 13 14  1  0
 14 15  1  0
 15 16  1  0
 16 17  1  0
 17 18  1  0
 18 19  1  0
 19 20  2  0
 12 21  1  0
 21 22  1  0
 22 23  1  0
 23 24  1  0
 24 25  1  0
 25 10  1  0
 21 11  1  0
 24 22  1  0
 25 21  1  0
 25 22  1  0
  1 26  1  0
  1 27  1  0
  3 28  1  0
  3 29  1  0
  4 30  1  0
  4 31  1  0
  5 32  1  0
  5 33  1  0
  5 34  1  0
  6 35  1  0
  6 36  1  0
  7 37  1  0
  8 38  1  0
  9 39  1  0
  9 40  1  0
 11 41  1  0
 12 42  1  0
 13 43  1  0
 13 44  1  0
 14 45  1  0
 14 46  1  0
 15 47  1  0
 15 48  1  0
 16 49  1  0
 16 50  1  0
 17 51  1  0
 17 52  1  0
 19 53  1  0
 23 54  1  0
 23 55  1  0
 24 56  1  0
M  END
