
     RDKit          2D

 77 84  0  0  0  0  0  0  0  0999 V2000
   15.3780  -19.0105  -11.7236 C   0  0  0  0  0  0  0  0  0  0  0  0
   16.3944  -19.4894  -12.7173 C   0  0  0  0  0  0  0  0  0  0  0  0
   17.4109  -19.9683  -13.7111 C   0  0  0  0  0  0  0  0  0  0  0  0
   18.4273  -20.4472  -14.7048 N   0  0  0  0  0  0  0  0  0  0  0  0
   17.1070  -20.2358  -11.6287 C   0  0  0  0  0  0  0  0  0  0  0  0
   17.8197  -20.9821  -10.5401 C   0  0  0  0  0  0  0  0  0  0  0  0
   18.5323  -21.7285   -9.4515 C   0  0  0  0  0  0  0  0  0  0  0  0
   19.2450  -22.4749   -8.3628 C   0  0  0  0  0  0  0  0  0  0  0  0
   19.9576  -23.2212   -7.2742 C   0  0  0  0  0  0  0  0  0  0  0  0
   20.1840  -23.9778   -5.9989 C   0  0  0  0  0  0  0  0  0  0  0  0
   21.6627  -24.2113   -6.0935 O   0  0  0  0  0  0  0  0  0  0  0  0
   18.8051  -23.5096   -6.3586 C   0  0  0  0  0  0  0  0  0  0  0  0
   18.0390  -24.0224   -5.1753 C   0  0  0  0  0  0  0  0  0  0  0  0
   17.2730  -24.5352   -3.9919 C   0  0  0  0  0  0  0  0  0  0  0  0
   16.5070  -25.0480   -2.8086 C   0  0  0  0  0  0  0  0  0  0  0  0
   17.7717  -25.6156   -2.2358 C   0  0  0  0  0  0  0  0  0  0  0  0
   19.0365  -26.1831   -1.6630 O   0  0  0  0  0  0  0  0  0  0  0  0
   17.0057  -26.1284   -1.0525 C   0  0  0  0  0  0  0  0  0  0  0  0
   15.7099  -26.2887   -0.3141 C   0  0  0  0  0  0  0  0  0  0  0  0
   16.1863  -27.0531    0.8853 C   0  0  0  0  0  0  0  0  0  0  0  0
   15.7409  -25.5608   -1.6253 C   0  0  0  0  0  0  0  0  0  0  0  0
   19.8284  -21.5669  -10.1891 C   0  0  0  0  0  0  0  0  0  0  0  0
   19.3516  -20.8038  -11.3892 C   0  0  0  0  0  0  0  0  0  0  0  0
   19.1765  -20.0512  -12.6749 C   0  0  0  0  0  0  0  0  0  0  0  0
   20.5191  -19.9420  -13.3348 C   0  0  0  0  0  0  0  0  0  0  0  0
   21.9613  -19.9923  -13.7437 O   0  0  0  0  0  0  0  0  0  0  0  0
   21.5241  -20.6271  -12.4569 C   0  0  0  0  0  0  0  0  0  0  0  0
   20.8026  -21.1597  -11.2545 N   0  0  0  0  0  0  0  0  0  0  0  0
   16.5236  -21.1438   -9.8025 C   0  0  0  0  0  0  0  0  0  0  0  0
   16.4923  -21.8733   -8.4922 C   0  0  0  0  0  0  0  0  0  0  0  0
   15.2276  -21.3054   -9.0649 C   0  0  0  0  0  0  0  0  0  0  0  0
   15.2589  -20.5759  -10.3752 C   0  0  0  0  0  0  0  0  0  0  0  0
   13.8083  -20.2183  -10.5089 C   0  0  0  0  0  0  0  0  0  0  0  0
   14.2822  -18.4442  -10.8700 H   0  0  0  0  0  0  0  0  0  0  0  0
   14.6654  -18.2641  -12.8122 H   0  0  0  0  0  0  0  0  0  0  0  0
   15.6147  -19.3339  -11.0344 H   0  0  0  0  0  0  0  0  0  0  0  0
   15.6818  -18.7431  -13.8059 H   0  0  0  0  0  0  0  0  0  0  0  0
   16.7010  -19.2180  -14.7988 H   0  0  0  0  0  0  0  0  0  0  0  0
   18.1208  -20.7186  -12.6234 H   0  0  0  0  0  0  0  0  0  0  0  0
   18.3185  -20.0402  -16.1444 H   0  0  0  0  0  0  0  0  0  0  0  0
   19.4145  -21.1516  -14.6297 H   0  0  0  0  0  0  0  0  0  0  0  0
   16.0646  -20.2183  -11.2989 H   0  0  0  0  0  0  0  0  0  0  0  0
   18.4031  -20.0744  -12.3665 H   0  0  0  0  0  0  0  0  0  0  0  0
   18.9048  -20.6447  -11.5192 H   0  0  0  0  0  0  0  0  0  0  0  0
   17.5779  -22.1470   -8.3727 H   0  0  0  0  0  0  0  0  0  0  0  0
   17.9493  -22.6344   -7.6240 H   0  0  0  0  0  0  0  0  0  0  0  0
   20.6178  -22.4075   -8.9634 H   0  0  0  0  0  0  0  0  0  0  0  0
   21.3576  -23.1921   -7.8118 H   0  0  0  0  0  0  0  0  0  0  0  0
   20.0759  -24.6915   -4.6840 H   0  0  0  0  0  0  0  0  0  0  0  0
   22.3753  -24.9577   -5.0049 H   0  0  0  0  0  0  0  0  0  0  0  0
   17.5817  -22.9178   -6.9935 H   0  0  0  0  0  0  0  0  0  0  0  0
   16.7736  -23.4583   -5.7500 H   0  0  0  0  0  0  0  0  0  0  0  0
   19.2017  -24.6449   -4.4605 H   0  0  0  0  0  0  0  0  0  0  0  0
   16.0928  -23.7015   -4.3946 H   0  0  0  0  0  0  0  0  0  0  0  0
   18.5377  -25.3002   -3.7365 H   0  0  0  0  0  0  0  0  0  0  0  0
   15.2421  -24.4805   -3.3814 H   0  0  0  0  0  0  0  0  0  0  0  0
   18.6862  -25.1758   -3.3405 H   0  0  0  0  0  0  0  0  0  0  0  0
   19.0069  -26.9043   -0.3480 H   0  0  0  0  0  0  0  0  0  0  0  0
   18.1516  -26.7618   -0.3205 H   0  0  0  0  0  0  0  0  0  0  0  0
   14.2486  -26.1835    0.0076 H   0  0  0  0  0  0  0  0  0  0  0  0
   16.6629  -27.8175    2.0848 H   0  0  0  0  0  0  0  0  0  0  0  0
   14.7858  -27.0851    1.4213 H   0  0  0  0  0  0  0  0  0  0  0  0
   17.6346  -27.1145    0.4995 H   0  0  0  0  0  0  0  0  0  0  0  0
   14.3209  -25.1453   -1.8723 H   0  0  0  0  0  0  0  0  0  0  0  0
   20.8889  -22.2334   -9.3637 H   0  0  0  0  0  0  0  0  0  0  0  0
   17.8730  -20.5705  -11.2948 H   0  0  0  0  0  0  0  0  0  0  0  0
   17.7342  -20.0009  -12.2659 H   0  0  0  0  0  0  0  0  0  0  0  0
   19.0527  -19.3036  -13.9694 H   0  0  0  0  0  0  0  0  0  0  0  0
   20.0423  -19.1789  -14.5349 H   0  0  0  0  0  0  0  0  0  0  0  0
   22.8836  -21.1157  -12.0532 H   0  0  0  0  0  0  0  0  0  0  0  0
   17.8302  -22.3843   -8.0462 H   0  0  0  0  0  0  0  0  0  0  0  0
   15.9572  -22.4787   -7.2283 H   0  0  0  0  0  0  0  0  0  0  0  0
   13.9314  -21.4671   -8.3273 H   0  0  0  0  0  0  0  0  0  0  0  0
   15.7941  -19.9706  -11.6390 H   0  0  0  0  0  0  0  0  0  0  0  0
   12.3577  -19.8607  -10.6426 H   0  0  0  0  0  0  0  0  0  0  0  0
   13.9657  -19.2313  -11.6274 H   0  0  0  0  0  0  0  0  0  0  0  0
   13.4716  -21.1688   -9.3984 H   0  0  0  0  0  0  0  0  0  0  0  0
  1  2  1  0
  2  3  1  0
  3  4  1  0
  2  5  1  0
  5  6  1  0
  6  7  1  0
  7  8  1  0
  8  9  1  0
  9 10  1  0
 10 11  1  0
 10 12  1  0
 12 13  1  0
 13 14  1  0
 14 15  1  0
 15 16  1  0
 16 17  1  0
 16 18  1  0
 18 19  1  0
 19 20  1  0
 19 21  1  0
  7 22  1  0
 22 23  1  0
 23 24  1  0
 24 25  1  0
 25 26  1  0
 26 27  1  0
 27 28  1  0
  6 29  1  0
 29 30  1  0
 30 31  1  0
 31 32  1  0
 32 33  1  0
 12  9  1  0
 21 15  1  0
 28 22  1  0
 31 29  1  0
 21 18  1  0
 28 23  1  0
 32 29  1  0
 27 25  1  0
  1 34  1  0
  1 35  1  0
  1 36  1  0
  2 37  1  0
  3 38  1  0
  3 39  1  0
  4 40  1  0
  4 41  1  0
  5 42  1  0
  5 43  1  0
  6 44  1  0
  7 45  1  0
  8 46  1  0
  8 47  1  0
  9 48  1  0
 10 49  1  0
 11 50  1  0
 12 51  1  0
 13 52  1  0
 13 53  1  0
 14 54  1  0
 14 55  1  0
 15 56  1  0
 16 57  1  0
 17 58  1  0
 18 59  1  0
 19 60  1  0
 20 61  1  0
 20 62  1  0
 20 63  1  0
 21 64  1  0
 22 65  1  0
 23 66  1  0
 24 67  1  0
 24 68  1  0
 25 69  1  0
 27 70  1  0
 30 71  1  0
 30 72  1  0
 31 73  1  0
 32 74  1  0
 33 75  1  0
 33 76  1  0
 33 77  1  0
M  END
