
     RDKit          2D

100105  0  0  0  0  0  0  0  0999 V2000
   18.5163  -13.7505   -0.3346 C   0  0  0  0  0  0  0  0  0  0  0  0
   18.3354  -14.9601   -1.2030 C   0  0  0  0  0  0  0  0  0  0  0  0
   18.1545  -16.1697   -2.0713 C   0  0  0  0  0  0  0  0  0  0  0  0
   17.9737  -17.3794   -2.9397 C   0  0  0  0  0  0  0  0  0  0  0  0
   17.7928  -18.5890   -3.8080 C   0  0  0  0  0  0  0  0  0  0  0  0
   18.8706  -18.3450   -4.8223 C   0  0  0  0  0  0  0  0  0  0  0  0
   19.9483  -18.1010   -5.8366 C   0  0  0  0  0  0  0  0  0  0  0  0
   16.6521  -19.2531   -3.0953 Mg  0  0  0  0  0  2  0  0  0  0  0  0
   17.2376  -19.8834   -4.3242 C   0  0  0  0  0  0  0  0  0  0  0  0
   18.1226  -20.0889   -5.5178 C   0  0  0  0  0  0  0  0  0  0  0  0
   19.0075  -20.2945   -6.7112 C   0  0  0  0  0  0  0  0  0  0  0  0
   17.3863  -21.3539   -5.8458 C   0  0  0  0  0  0  0  0  0  0  0  0
   16.6500  -22.6189   -6.1739 C   0  0  0  0  0  0  0  0  0  0  0  0
   15.9138  -23.8839   -6.5020 C   0  0  0  0  0  0  0  0  0  0  0  0
   18.2706  -21.5589   -7.0400 C   0  0  0  0  0  0  0  0  0  0  0  0
   17.6990  -22.8403   -7.5705 C   0  0  0  0  0  0  0  0  0  0  0  0
   17.1275  -24.1216   -8.1009 C   0  0  0  0  0  0  0  0  0  0  0  0
   16.5559  -25.4031   -8.6314 C   0  0  0  0  0  0  0  0  0  0  0  0
   15.9844  -26.6845   -9.1619 C   0  0  0  0  0  0  0  0  0  0  0  0
   17.0105  -25.0341  -10.0124 C   0  0  0  0  0  0  0  0  0  0  0  0
   19.1492  -20.3487   -6.9243 C   0  0  0  0  0  0  0  0  0  0  0  0
   20.2815  -19.5113   -7.4406 C   0  0  0  0  0  0  0  0  0  0  0  0
   20.4856  -20.4815   -8.5663 C   0  0  0  0  0  0  0  0  0  0  0  0
   20.6898  -21.4516   -9.6920 O   0  0  0  0  0  0  0  0  0  0  0  0
   21.2375  -20.9735  -11.0041 C   0  0  0  0  0  0  0  0  0  0  0  0
   21.7851  -20.4955  -12.3161 As  0  0  0  0  0  3  0  0  0  0  0  0
   20.8516  -20.0240  -13.3914 N   0  0  0  0  0  2  0  0  0  0  0  0
   20.3151  -20.9974  -14.3987 C   0  0  0  0  0  0  0  0  0  0  0  0
   19.5368  -19.8935  -15.0510 C   0  0  0  0  0  0  0  0  0  0  0  0
   19.0003  -20.8669  -16.0583 N   0  0  0  0  0  0  0  0  0  0  0  0
   18.0706  -20.7746  -17.2318 C   0  0  0  0  0  0  0  0  0  0  0  0
   17.7408  -19.3119  -17.1884 C   0  0  0  0  0  0  0  0  0  0  0  0
   17.2555  -21.1903  -18.4204 C   0  0  0  0  0  0  0  0  0  0  0  0
   18.0776  -22.2052  -17.6827 C   0  0  0  0  0  0  0  0  0  0  0  0
   18.0846  -23.6358  -18.1337 C   0  0  0  0  0  0  0  0  0  0  0  0
   18.8997  -23.2201  -16.9452 C   0  0  0  0  0  0  0  0  0  0  0  0
   19.5126  -24.5384  -16.5757 C   0  0  0  0  0  0  0  0  0  0  0  0
   20.1255  -25.8567  -16.2063 C   0  0  0  0  0  0  0  0  0  0  0  0
   19.7786  -21.9709  -15.4059 N   0  0  0  0  0  2  0  0  0  0  0  0
   19.3533  -21.3188   -8.0500 C   0  0  0  0  0  0  0  0  0  0  0  0
   18.6972  -12.5408    0.5338 H   0  0  0  0  0  0  0  0  0  0  0  0
   17.3929  -14.2138    0.5447 H   0  0  0  0  0  0  0  0  0  0  0  0
   19.6397  -13.2871   -1.2140 H   0  0  0  0  0  0  0  0  0  0  0  0
   19.4637  -14.5006   -2.0780 H   0  0  0  0  0  0  0  0  0  0  0  0
   17.2071  -15.4197   -0.3278 H   0  0  0  0  0  0  0  0  0  0  0  0
   17.0277  -16.6304   -1.1949 H   0  0  0  0  0  0  0  0  0  0  0  0
   19.2814  -15.7091   -2.9478 H   0  0  0  0  0  0  0  0  0  0  0  0
   16.8477  -17.8407   -2.0625 H   0  0  0  0  0  0  0  0  0  0  0  0
   19.1133  -16.7740   -3.7045 H   0  0  0  0  0  0  0  0  0  0  0  0
   19.5209  -17.1880   -4.1235 H   0  0  0  0  0  0  0  0  0  0  0  0
   18.4830  -19.4425   -5.7686 H   0  0  0  0  0  0  0  0  0  0  0  0
   21.0262  -17.8570   -6.8510 H   0  0  0  0  0  0  0  0  0  0  0  0
   20.3215  -16.8293   -5.1342 H   0  0  0  0  0  0  0  0  0  0  0  0
   19.7094  -19.3335   -6.6575 H   0  0  0  0  0  0  0  0  0  0  0  0
   16.2905  -21.0455   -4.2750 H   0  0  0  0  0  0  0  0  0  0  0  0
   19.0511  -18.9113   -5.4882 H   0  0  0  0  0  0  0  0  0  0  0  0
   19.8925  -20.5000   -7.9048 H   0  0  0  0  0  0  0  0  0  0  0  0
   19.7218  -19.0121   -6.4024 H   0  0  0  0  0  0  0  0  0  0  0  0
   18.5286  -21.5885   -7.2997 H   0  0  0  0  0  0  0  0  0  0  0  0
   16.4189  -21.3048   -4.7005 H   0  0  0  0  0  0  0  0  0  0  0  0
   15.7696  -22.4171   -4.9762 H   0  0  0  0  0  0  0  0  0  0  0  0
   17.3260  -23.1208   -7.4153 H   0  0  0  0  0  0  0  0  0  0  0  0
   15.2909  -25.1646   -6.9733 H   0  0  0  0  0  0  0  0  0  0  0  0
   16.7988  -24.0894   -7.6955 H   0  0  0  0  0  0  0  0  0  0  0  0
   14.8769  -23.9907   -5.4234 H   0  0  0  0  0  0  0  0  0  0  0  0
   18.6197  -22.9780   -8.7466 H   0  0  0  0  0  0  0  0  0  0  0  0
   16.5926  -23.1683   -6.6123 H   0  0  0  0  0  0  0  0  0  0  0  0
   16.0228  -24.4511   -7.1412 H   0  0  0  0  0  0  0  0  0  0  0  0
   18.1857  -23.9457   -9.1493 H   0  0  0  0  0  0  0  0  0  0  0  0
   16.0351  -25.9255   -7.3253 H   0  0  0  0  0  0  0  0  0  0  0  0
   15.4129  -27.9658   -9.6923 H   0  0  0  0  0  0  0  0  0  0  0  0
   16.8925  -26.8121  -10.3489 H   0  0  0  0  0  0  0  0  0  0  0  0
   14.9993  -26.7132   -8.0311 H   0  0  0  0  0  0  0  0  0  0  0  0
   17.4651  -24.6651  -11.3935 H   0  0  0  0  0  0  0  0  0  0  0  0
   17.1821  -26.4321  -10.5281 H   0  0  0  0  0  0  0  0  0  0  0  0
   16.9497  -23.5460   -9.8335 H   0  0  0  0  0  0  0  0  0  0  0  0
   18.7895  -19.5045   -5.7377 H   0  0  0  0  0  0  0  0  0  0  0  0
   21.4139  -18.6740   -7.9569 H   0  0  0  0  0  0  0  0  0  0  0  0
   20.4969  -18.3055   -6.5748 H   0  0  0  0  0  0  0  0  0  0  0  0
   21.6180  -19.6441   -9.0826 H   0  0  0  0  0  0  0  0  0  0  0  0
   21.1542  -22.3692  -11.5473 H   0  0  0  0  0  0  0  0  0  0  0  0
   21.3207  -19.5778  -10.4608 H   0  0  0  0  0  0  0  0  0  0  0  0
   23.2663  -20.4889  -12.5529 H   0  0  0  0  0  0  0  0  0  0  0  0
   21.0934  -22.1014  -13.7464 H   0  0  0  0  0  0  0  0  0  0  0  0
   18.8297  -18.6791  -15.5757 H   0  0  0  0  0  0  0  0  0  0  0  0
   20.0733  -18.9201  -14.0437 H   0  0  0  0  0  0  0  0  0  0  0  0
   17.4109  -17.8493  -17.1450 H   0  0  0  0  0  0  0  0  0  0  0  0
   16.8233  -19.2961  -18.3750 H   0  0  0  0  0  0  0  0  0  0  0  0
   18.5778  -18.9713  -15.9912 H   0  0  0  0  0  0  0  0  0  0  0  0
   16.5594  -19.9616  -18.9262 H   0  0  0  0  0  0  0  0  0  0  0  0
   16.6532  -22.0638  -19.4807 H   0  0  0  0  0  0  0  0  0  0  0  0
   17.1549  -23.5435  -19.3072 H   0  0  0  0  0  0  0  0  0  0  0  0
   18.3039  -25.1076  -18.3230 H   0  0  0  0  0  0  0  0  0  0  0  0
   19.6604  -22.6592  -15.7803 H   0  0  0  0  0  0  0  0  0  0  0  0
   20.2459  -23.8805  -15.4446 H   0  0  0  0  0  0  0  0  0  0  0  0
   18.8595  -25.3521  -17.6534 H   0  0  0  0  0  0  0  0  0  0  0  0
   20.7385  -27.1750  -15.8370 H   0  0  0  0  0  0  0  0  0  0  0  0
   18.8374  -26.2749  -15.5616 H   0  0  0  0  0  0  0  0  0  0  0  0
   21.4137  -25.4384  -16.8511 H   0  0  0  0  0  0  0  0  0  0  0  0
   19.3978  -22.3960   -9.0929 H   0  0  0  0  0  0  0  0  0  0  0  0
  1  2  1  0
  2  3  1  0
  3  4  1  0
  4  5  1  0
  5  6  1  0
  6  7  1  0
  5  8  1  0
  8  9  1  0
  9 10  1  0
 10 11  1  0
 10 12  1  0
 12 13  1  0
 13 14  1  0
 12 15  1  0
 15 16  1  0
 16 17  1  0
 17 18  1  0
 18 19  1  0
 18 20  1  0
 15 21  1  0
 21 22  1  0
 22 23  1  0
 23 24  1  0
 24 25  1  0
 25 26  1  0
 26 27  1  0
 27 28  1  0
 28 29  1  0
 29 30  1  0
 30 31  1  0
 31 32  1  0
 31 33  1  0
 33 34  1  0
 34 35  1  0
 35 36  1  0
 36 37  1  0
 37 38  1  0
 30 39  1  0
 23 40  1  0
  9  5  1  0
 40 15  1  0
 40 21  1  0
 39 28  1  0
 34 31  1  0
 36 34  1  0
  1 41  1  0
  1 42  1  0
  1 43  1  0
  2 44  1  0
  2 45  1  0
  3 46  1  0
  3 47  1  0
  4 48  1  0
  4 49  1  0
  6 50  1  0
  6 51  1  0
  7 52  1  0
  7 53  1  0
  7 54  1  0
  9 55  1  0
 10 56  1  0
 11 57  1  0
 11 58  1  0
 11 59  1  0
 12 60  1  0
 13 61  1  0
 13 62  1  0
 14 63  1  0
 14 64  1  0
 14 65  1  0
 16 66  1  0
 16 67  1  0
 17 68  1  0
 17 69  1  0
 18 70  1  0
 19 71  1  0
 19 72  1  0
 19 73  1  0
 20 74  1  0
 20 75  1  0
 20 76  1  0
 21 77  1  0
 22 78  1  0
 22 79  1  0
 23 80  1  0
 25 81  1  0
 25 82  1  0
 26 83  1  0
 28 84  1  0
 29 85  1  0
 29 86  1  0
 32 87  1  0
 32 88  1  0
 32 89  1  0
 33 90  1  0
 33 91  1  0
 35 92  1  0
 35 93  1  0
 36 94  1  0
 37 95  1  0
 37 96  1  0
 38 97  1  0
 38 98  1  0
 38 99  1  0
 40100  1  0
M  RAD  2  27   2  39   2
M  END
