
     RDKit          2D

 75 82  0  0  0  0  0  0  0  0999 V2000
    2.9696   18.6451   13.1676 C   0  0  0  0  0  0  0  0  0  0  0  0
    2.8070   19.6243   12.0430 C   0  0  0  0  0  0  0  0  0  0  0  0
    2.6444   20.6035   10.9185 C   0  0  0  0  0  0  0  0  0  0  0  0
    2.4817   21.5827    9.7938 C   0  0  0  0  0  0  0  0  0  0  0  0
    2.3192   22.5620    8.6692 C   0  0  0  0  0  0  0  0  0  0  0  0
    0.9958   22.1143    8.1232 C   0  0  0  0  0  0  0  0  0  0  0  0
    0.3934   22.8200    6.9446 C   0  0  0  0  0  0  0  0  0  0  0  0
    0.2309   23.7993    5.8201 C   0  0  0  0  0  0  0  0  0  0  0  0
    0.0683   24.7785    4.6955 C   0  0  0  0  0  0  0  0  0  0  0  0
   -0.0943   25.7577    3.5709 C   0  0  0  0  0  0  0  0  0  0  0  0
    0.2026   26.8925    2.6359 C   0  0  0  0  0  0  0  0  0  0  0  0
   -1.0176   26.8388    1.7652 C   0  0  0  0  0  0  0  0  0  0  0  0
   -2.2379   26.7851    0.8946 C   0  0  0  0  0  0  0  0  0  0  0  0
   -3.4582   26.7315    0.0238 C   0  0  0  0  0  0  0  0  0  0  0  0
   -3.6196   27.7092   -1.1022 C   0  0  0  0  0  0  0  0  0  0  0  0
   -4.6784   26.6778   -0.8468 C   0  0  0  0  0  0  0  0  0  0  0  0
   -5.7372   25.6463   -0.5914 N   0  0  0  0  0  0  0  0  0  0  0  0
   -4.5169   25.7001    0.2792 C   0  0  0  0  0  0  0  0  0  0  0  0
   -0.5005   28.0000    0.9689 C   0  0  0  0  0  0  0  0  0  0  0  0
   -0.5641   29.0230   -0.1264 C   0  0  0  0  0  0  0  0  0  0  0  0
    0.4313   30.0924   -0.4660 C   0  0  0  0  0  0  0  0  0  0  0  0
    1.7361   30.4032    0.2056 C   0  0  0  0  0  0  0  0  0  0  0  0
    1.8705   31.4971   -0.8120 F   0  0  0  0  0  0  0  0  0  0  0  0
    3.0609   30.8774    0.7251 N   0  0  0  0  0  0  0  0  0  0  0  0
    2.3677   29.7212    1.3828 C   0  0  0  0  0  0  0  0  0  0  0  0
    1.8505   28.5599    2.1791 N   0  0  0  0  0  0  0  0  0  0  0  0
    2.7256   28.1045    3.3091 C   0  0  0  0  0  0  0  0  0  0  0  0
    0.5741   27.7939    1.9950 C   0  0  0  0  0  0  0  0  0  0  0  0
    1.1725   26.5456    3.7263 N   0  0  0  0  0  0  0  0  0  0  0  0
    2.4640   26.8002    4.4455 C   0  0  0  0  0  0  0  0  0  0  0  0
    3.7555   27.0548    5.1648 C   0  0  0  0  0  0  0  0  0  0  0  0
    5.0470   27.3094    5.8841 Br  0  0  0  0  0  0  0  0  0  0  0  0
    1.7167   23.2677    7.4907 C   0  0  0  0  0  0  0  0  0  0  0  0
    3.1322   17.6659   14.2922 H   0  0  0  0  0  0  0  0  0  0  0  0
    4.2140   19.3574   13.6079 H   0  0  0  0  0  0  0  0  0  0  0  0
    1.7251   17.9327   12.7273 H   0  0  0  0  0  0  0  0  0  0  0  0
    1.3179   19.4580   12.1135 H   0  0  0  0  0  0  0  0  0  0  0  0
    4.2960   19.7906   11.9726 H   0  0  0  0  0  0  0  0  0  0  0  0
    3.9822   21.1988   11.2434 H   0  0  0  0  0  0  0  0  0  0  0  0
    1.3064   20.0082   10.5934 H   0  0  0  0  0  0  0  0  0  0  0  0
    3.7885   22.2214   10.1610 H   0  0  0  0  0  0  0  0  0  0  0  0
    1.1751   20.9441    9.4267 H   0  0  0  0  0  0  0  0  0  0  0  0
    3.5862   23.3498    8.8248 H   0  0  0  0  0  0  0  0  0  0  0  0
    0.2749   20.9610    8.7556 H   0  0  0  0  0  0  0  0  0  0  0  0
   -0.8736   22.0323    6.7890 H   0  0  0  0  0  0  0  0  0  0  0  0
   -1.0841   23.1715    5.4636 H   0  0  0  0  0  0  0  0  0  0  0  0
    1.5457   24.4271    6.1766 H   0  0  0  0  0  0  0  0  0  0  0  0
    1.5179   25.0516    4.9675 H   0  0  0  0  0  0  0  0  0  0  0  0
   -1.3723   24.3832    4.5595 H   0  0  0  0  0  0  0  0  0  0  0  0
   -1.4163   25.1824    3.1565 H   0  0  0  0  0  0  0  0  0  0  0  0
    0.7173   27.4680    2.4378 H   0  0  0  0  0  0  0  0  0  0  0  0
   -1.6796   25.6797    2.4495 H   0  0  0  0  0  0  0  0  0  0  0  0
   -2.7553   25.6243    1.6912 H   0  0  0  0  0  0  0  0  0  0  0  0
   -2.0312   27.8985   -0.0891 H   0  0  0  0  0  0  0  0  0  0  0  0
   -2.3140   28.3859   -0.8063 H   0  0  0  0  0  0  0  0  0  0  0  0
   -4.2214   28.4136   -2.2818 H   0  0  0  0  0  0  0  0  0  0  0  0
   -7.0530   25.0199   -0.9467 H   0  0  0  0  0  0  0  0  0  0  0  0
   -4.3555   24.7223    1.4053 H   0  0  0  0  0  0  0  0  0  0  0  0
   -1.8052   27.6893    0.2973 H   0  0  0  0  0  0  0  0  0  0  0  0
   -1.8745   28.3693   -0.4512 H   0  0  0  0  0  0  0  0  0  0  0  0
   -1.3330   29.5852   -1.2851 H   0  0  0  0  0  0  0  0  0  0  0  0
   -0.5407   30.4364   -1.5554 H   0  0  0  0  0  0  0  0  0  0  0  0
    0.9484   31.2537   -1.2624 H   0  0  0  0  0  0  0  0  0  0  0  0
    4.2260   31.8187    0.6454 H   0  0  0  0  0  0  0  0  0  0  0  0
    3.6110   29.8298    2.2148 H   0  0  0  0  0  0  0  0  0  0  0  0
    3.7155   27.7828    4.3892 H   0  0  0  0  0  0  0  0  0  0  0  0
    2.1100   26.9427    4.0313 H   0  0  0  0  0  0  0  0  0  0  0  0
    3.8202   29.1105    3.1097 H   0  0  0  0  0  0  0  0  0  0  0  0
    1.3431   27.2317    3.1537 H   0  0  0  0  0  0  0  0  0  0  0  0
   -0.1799   26.6460    2.5980 H   0  0  0  0  0  0  0  0  0  0  0  0
    3.2250   27.7002    3.5176 H   0  0  0  0  0  0  0  0  0  0  0  0
    2.1627   25.9737    5.6605 H   0  0  0  0  0  0  0  0  0  0  0  0
    3.4595   25.9187    6.0984 H   0  0  0  0  0  0  0  0  0  0  0  0
    4.2066   28.2135    4.3258 H   0  0  0  0  0  0  0  0  0  0  0  0
    2.4376   24.4211    6.8582 H   0  0  0  0  0  0  0  0  0  0  0  0
  1  2  1  0
  2  3  1  0
  3  4  1  0
  4  5  1  0
  5  6  1  0
  6  7  1  0
  7  8  1  0
  8  9  1  0
  9 10  1  0
 10 11  1  0
 11 12  1  0
 12 13  1  0
 13 14  1  0
 14 15  1  0
 15 16  1  0
 16 17  1  0
 17 18  1  0
 12 19  1  0
 19 20  1  0
 20 21  1  0
 21 22  1  0
 22 23  1  0
 22 24  1  0
 24 25  1  0
 25 26  1  0
 26 27  1  0
 26 28  1  0
 11 29  1  0
 29 30  1  0
 30 31  1  0
 31 32  1  0
  7 33  1  0
 33  5  1  0
 33  6  1  0
 29 10  1  0
 16 14  1  0
 28 19  1  0
 18 14  1  0
 25 22  1  0
 18 16  1  0
  1 34  1  0
  1 35  1  0
  1 36  1  0
  2 37  1  0
  2 38  1  0
  3 39  1  0
  3 40  1  0
  4 41  1  0
  4 42  1  0
  5 43  1  0
  6 44  1  0
  7 45  1  0
  8 46  1  0
  8 47  1  0
  9 48  1  0
  9 49  1  0
 10 50  1  0
 11 51  1  0
 12 52  1  0
 13 53  1  0
 13 54  1  0
 15 55  1  0
 15 56  1  0
 17 57  1  0
 18 58  1  0
 19 59  1  0
 20 60  1  0
 20 61  1  0
 21 62  1  0
 21 63  1  0
 24 64  1  0
 25 65  1  0
 27 66  1  0
 27 67  1  0
 27 68  1  0
 28 69  1  0
 28 70  1  0
 30 71  1  0
 30 72  1  0
 31 73  1  0
 31 74  1  0
 33 75  1  0
M  END
