
     RDKit          2D

 40 43  0  0  0  0  0  0  0  0999 V2000
   -0.8096   20.1875    7.3930 C   0  0  0  0  0  0  0  0  0  0  0  0
   -1.1642   21.3650    8.2519 C   0  0  0  0  0  0  0  0  0  0  0  0
   -0.9909   22.7581    7.7234 C   0  0  0  0  0  0  0  0  0  0  0  0
   -0.8176   24.1511    7.1949 C   0  0  0  0  0  0  0  0  0  0  0  0
   -0.6443   25.5442    6.6664 C   0  0  0  0  0  0  0  0  0  0  0  0
   -1.7702   26.2150    5.9367 C   0  0  0  0  0  0  0  0  0  0  0  0
   -1.5968   27.6081    5.4081 C   0  0  0  0  0  0  0  0  0  0  0  0
   -1.4236   29.0011    4.8796 O   0  0  0  0  0  0  0  0  0  0  0  0
   -2.9970   27.5784    4.8708 S   0  0  0  0  0  4  0  0  0  0  0  0
   -3.0704   28.9461    4.2593 C   0  0  0  0  0  0  0  0  0  0  0  0
   -3.8383   29.9949    3.5108 C   0  0  0  0  0  0  0  0  0  0  0  0
   -3.5445   31.3863    3.0334 C   0  0  0  0  0  0  0  0  0  0  0  0
   -3.2507   32.7775    2.5560 F   0  0  0  0  0  0  0  0  0  0  0  0
   -6.2051   28.1573    3.3641 C   0  0  0  0  0  0  0  0  0  0  0  0
   -5.4372   27.1085    4.1126 C   0  0  0  0  0  0  0  0  0  0  0  0
   -4.6692   26.0597    4.8611 C   0  0  0  0  0  0  0  0  0  0  0  0
   -3.9013   25.0108    5.6096 O   0  0  0  0  0  0  0  0  0  0  0  0
   -4.2538   28.0273    4.1859 C   0  0  0  0  0  0  0  0  0  0  0  0
   -5.0217   29.0761    3.4375 C   0  0  0  0  0  0  0  0  0  0  0  0
   -0.9829   18.7944    7.9216 H   0  0  0  0  0  0  0  0  0  0  0  0
   -0.2817   20.4030    6.0057 H   0  0  0  0  0  0  0  0  0  0  0  0
   -1.6922   21.1495    9.6394 H   0  0  0  0  0  0  0  0  0  0  0  0
   -0.4719   22.2029    6.4303 H   0  0  0  0  0  0  0  0  0  0  0  0
   -1.5100   23.3133    9.0166 H   0  0  0  0  0  0  0  0  0  0  0  0
   -1.4181   24.7034    8.4537 H   0  0  0  0  0  0  0  0  0  0  0  0
   -0.2172   23.5989    5.9362 H   0  0  0  0  0  0  0  0  0  0  0  0
    0.6549   26.2664    6.8675 H   0  0  0  0  0  0  0  0  0  0  0  0
   -2.9927   25.3528    5.8255 H   0  0  0  0  0  0  0  0  0  0  0  0
   -0.1967   27.6377    5.9455 H   0  0  0  0  0  0  0  0  0  0  0  0
   -0.1244   29.7234    5.0808 H   0  0  0  0  0  0  0  0  0  0  0  0
   -3.2165   26.8461    5.0966 H   0  0  0  0  0  0  0  0  0  0  0  0
   -1.8738   29.8465    4.3457 H   0  0  0  0  0  0  0  0  0  0  0  0
   -4.9985   31.7346    3.1540 H   0  0  0  0  0  0  0  0  0  0  0  0
   -2.0905   31.0379    2.9129 H   0  0  0  0  0  0  0  0  0  0  0  0
   -7.5849   28.2493    2.7830 H   0  0  0  0  0  0  0  0  0  0  0  0
   -6.6206   26.1897    4.0393 H   0  0  0  0  0  0  0  0  0  0  0  0
   -5.9461   25.3231    5.1390 H   0  0  0  0  0  0  0  0  0  0  0  0
   -3.8028   26.2437    4.8663 H   0  0  0  0  0  0  0  0  0  0  0  0
   -4.4500   23.6197    5.7262 H   0  0  0  0  0  0  0  0  0  0  0  0
   -5.7896   30.1250    2.6890 H   0  0  0  0  0  0  0  0  0  0  0  0
  1  2  2  3
  2  3  1  0
  3  4  1  0
  4  5  1  0
  5  6  2  3
  6  7  1  0
  7  8  1  0
  7  9  1  0
  9 10  1  0
 10 11  1  0
 11 12  1  1
 12 13  1  0
 11 14  1  0
 14 15  1  0
 15 16  1  0
 16 17  1  0
 18 15  1  1
 18 19  1  0
 18  9  1  0
 18 10  1  0
 19 11  1  0
 19 14  1  0
  1 20  1  0
  1 21  1  0
  2 22  1  0
  3 23  1  0
  3 24  1  0
  4 25  1  0
  4 26  1  0
  5 27  1  0
  6 28  1  0
  7 29  1  6
  8 30  1  0
  9 31  1  1
 10 32  1  1
 12 33  1  0
 12 34  1  0
 14 35  1  1
 15 36  1  6
 16 37  1  0
 16 38  1  0
 17 39  1  0
 19 40  1  1
M  END
