
     RDKit          2D

116122  0  0  0  0  0  0  0  0999 V2000
    1.5572   16.7259    2.6133 C   0  0  0  0  0  0  0  0  0  0  0  0
    2.7434   16.9335    3.5076 C   0  0  0  0  0  0  0  0  0  0  0  0
    2.5735   17.6161    4.8323 C   0  0  0  0  0  0  0  0  0  0  0  0
    2.4036   18.2988    6.1571 C   0  0  0  0  0  0  0  0  0  0  0  0
    2.2337   18.9814    7.4820 C   0  0  0  0  0  0  0  0  0  0  0  0
    2.0638   19.6641    8.8068 C   0  0  0  0  0  0  0  0  0  0  0  0
    1.8939   20.3468   10.1315 C   0  0  0  0  0  0  0  0  0  0  0  0
    1.7240   21.0294   11.4564 C   0  0  0  0  0  0  0  0  0  0  0  0
    1.6830   22.2202   12.3677 C   0  0  0  0  0  0  0  0  0  0  0  0
    1.4179   22.2595   13.8436 C   0  0  0  0  0  0  0  0  0  0  0  0
    1.1283   21.1180   14.7727 C   0  0  0  0  0  0  0  0  0  0  0  0
    1.0323   19.6551   14.4552 C   0  0  0  0  0  0  0  0  0  0  0  0
    0.7672   19.6945   15.9311 C   0  0  0  0  0  0  0  0  0  0  0  0
    1.2022   18.9724   13.1304 C   0  0  0  0  0  0  0  0  0  0  0  0
    1.3317   18.0997   11.9173 C   0  0  0  0  0  0  0  0  0  0  0  0
    1.5101   19.5841   11.7958 C   0  0  0  0  0  0  0  0  0  0  0  0
    1.7855   19.6477   10.3227 C   0  0  0  0  0  0  0  0  0  0  0  0
    2.0946   20.3967    9.0604 C   0  0  0  0  0  0  0  0  0  0  0  0
    2.3665   21.6596    8.2981 C   0  0  0  0  0  0  0  0  0  0  0  0
    2.6675   22.0781    6.8894 C   0  0  0  0  0  0  0  0  0  0  0  0
    2.5390   23.1471    8.2105 C   0  0  0  0  0  0  0  0  0  0  0  0
    2.8218   24.3420    7.3489 C   0  0  0  0  0  0  0  0  0  0  0  0
    2.5725   24.5183    8.8175 C   0  0  0  0  0  0  0  0  0  0  0  0
    2.4593   25.4593    9.9803 Si  0  0  0  0  0  4  0  0  0  0  0  0
    2.2254   25.7543   11.4321 C   0  0  0  0  0  0  0  0  0  0  0  0
    1.9244   25.3358   12.8409 C   0  0  0  0  0  0  0  0  0  0  0  0
    1.9206   26.6262   13.6056 C   0  0  0  0  0  0  0  0  0  0  0  0
    1.9168   27.9165   14.3704 C   0  0  0  0  0  0  0  0  0  0  0  0
    1.6252   24.2997   13.8835 C   0  0  0  0  0  0  0  0  0  0  0  0
    1.3498   24.2361   15.3565 C   0  0  0  0  0  0  0  0  0  0  0  0
    2.5113   26.8635   10.5049 C   0  0  0  0  0  0  0  0  0  0  0  0
    2.8160   27.3677    9.1255 C   0  0  0  0  0  0  0  0  0  0  0  0
    2.7640   25.9635    8.6008 C   0  0  0  0  0  0  0  0  0  0  0  0
    3.0687   26.4677    7.2213 C   0  0  0  0  0  0  0  0  0  0  0  0
    3.3734   26.9719    5.8418 C   0  0  0  0  0  0  0  0  0  0  0  0
    3.6781   27.4760    4.4624 C   0  0  0  0  0  0  0  0  0  0  0  0
    3.9642   28.9163    4.7687 C   0  0  0  0  0  0  0  0  0  0  0  0
    4.2503   30.3566    5.0750 C   0  0  0  0  0  0  0  0  0  0  0  0
    4.5363   31.7968    5.3814 C   0  0  0  0  0  0  0  0  0  0  0  0
    3.4979   26.2109    3.6769 C   0  0  0  0  0  0  0  0  0  0  0  0
    3.7033   26.2149    2.1910 C   0  0  0  0  0  0  0  0  0  0  0  0
    4.0080   26.7191    0.8116 C   0  0  0  0  0  0  0  0  0  0  0  0
    4.3127   27.2233   -0.5679 C   0  0  0  0  0  0  0  0  0  0  0  0
    3.8835   27.4800    2.9765 C   0  0  0  0  0  0  0  0  0  0  0  0
    1.7271   16.0432    1.2884 H   0  0  0  0  0  0  0  0  0  0  0  0
    0.2011   17.2009    3.0437 H   0  0  0  0  0  0  0  0  0  0  0  0
    4.0995   16.4584    3.0770 H   0  0  0  0  0  0  0  0  0  0  0  0
    2.8238   18.9437    4.1804 H   0  0  0  0  0  0  0  0  0  0  0  0
    2.3232   16.2887    5.4842 H   0  0  0  0  0  0  0  0  0  0  0  0
    2.1479   16.9718    6.8081 H   0  0  0  0  0  0  0  0  0  0  0  0
    2.6593   19.6258    5.5062 H   0  0  0  0  0  0  0  0  0  0  0  0
    2.5343   19.9754    6.3995 H   0  0  0  0  0  0  0  0  0  0  0  0
    1.9770   17.6546    8.1327 H   0  0  0  0  0  0  0  0  0  0  0  0
    2.3565   20.7861    7.8552 H   0  0  0  0  0  0  0  0  0  0  0  0
    1.8045   18.3375    9.4570 H   0  0  0  0  0  0  0  0  0  0  0  0
    2.1505   21.6736    9.4808 H   0  0  0  0  0  0  0  0  0  0  0  0
    1.7696   19.6026   10.3890 H   0  0  0  0  0  0  0  0  0  0  0  0
    2.0246   22.0453   10.3946 H   0  0  0  0  0  0  0  0  0  0  0  0
    1.7789   23.6829   12.6852 H   0  0  0  0  0  0  0  0  0  0  0  0
    1.9920   22.9931   11.1199 H   0  0  0  0  0  0  0  0  0  0  0  0
    1.4460   23.6204   14.4738 H   0  0  0  0  0  0  0  0  0  0  0  0
    0.8262   20.6768   16.1741 H   0  0  0  0  0  0  0  0  0  0  0  0
    1.0502   22.1902   15.8187 H   0  0  0  0  0  0  0  0  0  0  0  0
    0.8184   18.2097   14.7946 H   0  0  0  0  0  0  0  0  0  0  0  0
    0.6093   18.2028   15.9425 H   0  0  0  0  0  0  0  0  0  0  0  0
    0.8916   21.1798   16.0996 H   0  0  0  0  0  0  0  0  0  0  0  0
    0.5021   19.7339   17.4069 H   0  0  0  0  0  0  0  0  0  0  0  0
    0.9320   17.7004   13.8781 H   0  0  0  0  0  0  0  0  0  0  0  0
    1.0778   16.7563   12.5346 H   0  0  0  0  0  0  0  0  0  0  0  0
    1.5211   17.5215   10.5462 H   0  0  0  0  0  0  0  0  0  0  0  0
    1.6138   18.1599   10.4063 H   0  0  0  0  0  0  0  0  0  0  0  0
    1.8257   18.4545    9.4145 H   0  0  0  0  0  0  0  0  0  0  0  0
    2.1373   19.2110    8.1426 H   0  0  0  0  0  0  0  0  0  0  0  0
    2.3285   20.1017    7.6084 H   0  0  0  0  0  0  0  0  0  0  0  0
    2.4805   20.7218    7.1329 H   0  0  0  0  0  0  0  0  0  0  0  0
    2.6366   20.7074    6.2809 H   0  0  0  0  0  0  0  0  0  0  0  0
    2.7356   23.5105    7.3295 H   0  0  0  0  0  0  0  0  0  0  0  0
    2.9685   22.4966    5.4809 H   0  0  0  0  0  0  0  0  0  0  0  0
    2.7888   22.9748    6.7415 H   0  0  0  0  0  0  0  0  0  0  0  0
    2.9937   23.6696    6.0192 H   0  0  0  0  0  0  0  0  0  0  0  0
    3.1068   25.5210    6.4666 H   0  0  0  0  0  0  0  0  0  0  0  0
    2.8557   25.7108    7.9527 H   0  0  0  0  0  0  0  0  0  0  0  0
    2.3982   27.2416   11.3425 H   0  0  0  0  0  0  0  0  0  0  0  0
    2.2241   27.5273   12.4455 H   0  0  0  0  0  0  0  0  0  0  0  0
    1.6226   26.2113   15.0160 H   0  0  0  0  0  0  0  0  0  0  0  0
    1.5626   27.1726   15.6239 H   0  0  0  0  0  0  0  0  0  0  0  0
    2.2710   28.6605   13.1170 H   0  0  0  0  0  0  0  0  0  0  0  0
    1.9130   29.2069   15.1352 H   0  0  0  0  0  0  0  0  0  0  0  0
    1.6210   25.5891   14.6500 H   0  0  0  0  0  0  0  0  0  0  0  0
    1.4577   25.7077   15.6264 H   0  0  0  0  0  0  0  0  0  0  0  0
    1.1747   22.7491   15.4458 H   0  0  0  0  0  0  0  0  0  0  0  0
    1.0743   24.1726   16.8296 H   0  0  0  0  0  0  0  0  0  0  0  0
    2.5632   28.2678   11.0297 H   0  0  0  0  0  0  0  0  0  0  0  0
    2.2282   26.7141   11.9703 H   0  0  0  0  0  0  0  0  0  0  0  0
    3.1248   28.0393    7.8203 H   0  0  0  0  0  0  0  0  0  0  0  0
    2.8680   28.7720    9.6502 H   0  0  0  0  0  0  0  0  0  0  0  0
    2.8612   24.9604    7.4897 H   0  0  0  0  0  0  0  0  0  0  0  0
    3.4770   27.8549    7.6197 H   0  0  0  0  0  0  0  0  0  0  0  0
    2.7347   25.2033    6.4865 H   0  0  0  0  0  0  0  0  0  0  0  0
    3.1144   25.5441    5.4616 H   0  0  0  0  0  0  0  0  0  0  0  0
    3.5969   28.3483    6.3942 H   0  0  0  0  0  0  0  0  0  0  0  0
    4.9121   28.9750    3.6076 H   0  0  0  0  0  0  0  0  0  0  0  0
    3.0582   29.0336    5.9585 H   0  0  0  0  0  0  0  0  0  0  0  0
    4.5082   30.6148    3.6201 H   0  0  0  0  0  0  0  0  0  0  0  0
    3.9924   30.0983    6.5299 H   0  0  0  0  0  0  0  0  0  0  0  0
    4.7941   32.0551    3.9264 H   0  0  0  0  0  0  0  0  0  0  0  0
    4.2786   31.5385    6.8363 H   0  0  0  0  0  0  0  0  0  0  0  0
    4.8224   33.2371    5.6877 H   0  0  0  0  0  0  0  0  0  0  0  0
    3.1123   24.9417    4.3773 H   0  0  0  0  0  0  0  0  0  0  0  0
    3.4172   24.7746    1.8847 H   0  0  0  0  0  0  0  0  0  0  0  0
    3.7889   25.3416    0.2597 H   0  0  0  0  0  0  0  0  0  0  0  0
    4.2270   28.0966    1.3634 H   0  0  0  0  0  0  0  0  0  0  0  0
    3.9743   25.8764   -1.1349 H   0  0  0  0  0  0  0  0  0  0  0  0
    4.6510   28.5701   -0.0009 H   0  0  0  0  0  0  0  0  0  0  0  0
    4.6174   27.7274   -1.9474 H   0  0  0  0  0  0  0  0  0  0  0  0
    4.2691   28.7492    2.2761 H   0  0  0  0  0  0  0  0  0  0  0  0
  1  2  2  0
  2  3  1  0
  3  4  1  0
  4  5  1  0
  5  6  1  0
  6  7  1  0
  7  8  1  0
  8  9  1  0
  9 10  1  0
 10 11  1  0
 11 12  1  0
 12 13  1  0
 12 14  1  0
 14 15  1  0
 15 16  1  0
 16 17  1  0
 17 18  1  0
 18 19  1  0
 19 20  1  0
 19 21  1  0
 21 22  1  0
 22 23  1  0
 23 24  1  0
 24 25  1  0
 25 26  2  0
 26 27  1  0
 27 28  1  0
 26 29  1  0
 29 30  1  0
 24 31  1  0
 31 32  1  0
 32 33  1  0
 33 34  1  0
 34 35  1  0
 35 36  1  0
 36 37  1  0
 37 38  1  0
 38 39  1  0
 36 40  1  0
 40 41  1  0
 41 42  1  0
 42 43  1  0
 41 44  1  0
 16  8  1  0
 23 21  1  0
 33 24  1  0
 44 36  1  0
 29 10  1  0
 44 40  1  0
 16 14  1  0
  1 45  1  0
  1 46  1  0
  2 47  1  0
  3 48  1  0
  3 49  1  0
  4 50  1  0
  4 51  1  0
  5 52  1  0
  5 53  1  0
  6 54  1  0
  6 55  1  0
  7 56  1  0
  7 57  1  0
  8 58  1  0
  9 59  1  0
  9 60  1  0
 10 61  1  0
 11 62  1  0
 11 63  1  0
 12 64  1  0
 13 65  1  0
 13 66  1  0
 13 67  1  0
 14 68  1  0
 15 69  1  0
 15 70  1  0
 17 71  1  0
 17 72  1  0
 18 73  1  0
 18 74  1  0
 19 75  1  0
 20 76  1  0
 20 77  1  0
 20 78  1  0
 21 79  1  0
 22 80  1  0
 22 81  1  0
 23 82  1  0
 25 83  1  0
 27 84  1  0
 27 85  1  0
 28 86  1  0
 28 87  1  0
 28 88  1  0
 29 89  1  0
 30 90  1  0
 30 91  1  0
 30 92  1  0
 31 93  1  0
 31 94  1  0
 32 95  1  0
 32 96  1  0
 33 97  1  0
 34 98  1  0
 34 99  1  0
 35100  1  0
 35101  1  0
 37102  1  0
 37103  1  0
 38104  1  0
 38105  1  0
 39106  1  0
 39107  1  0
 39108  1  0
 40109  1  0
 41110  1  0
 42111  1  0
 42112  1  0
 43113  1  0
 43114  1  0
 43115  1  0
 44116  1  0
M  END
