
     RDKit          2D

 60 63  0  0  0  0  0  0  0  0999 V2000
    2.8540   25.3092   -2.3248 C   0  0  0  0  0  0  0  0  0  0  0  0
    2.1493   25.8784   -1.1292 C   0  0  0  0  0  0  0  0  0  0  0  0
    1.1303   25.0562   -0.3974 C   0  0  0  0  0  0  0  0  0  0  0  0
    1.5292   24.0842   -1.4679 O   0  0  0  0  0  0  0  0  0  0  0  0
    0.4256   25.6255    0.7982 C   0  0  0  0  0  0  0  0  0  0  0  0
   -0.2791   26.1947    1.9937 C   0  0  0  0  0  0  0  0  0  0  0  0
   -0.6780   27.1667    3.0642 C   0  0  0  0  0  0  0  0  0  0  0  0
   -1.0769   28.1388    4.1348 C   0  0  0  0  0  0  0  0  0  0  0  0
   -0.4412   29.4964    4.1899 C   0  0  0  0  0  0  0  0  0  0  0  0
   -0.8401   30.4684    5.2604 C   0  0  0  0  0  0  0  0  0  0  0  0
   -1.2390   31.4404    6.3309 C   0  0  0  0  0  0  0  0  0  0  0  0
   -2.1115   27.7533    5.1501 C   0  0  0  0  0  0  0  0  0  0  0  0
   -3.1462   27.3679    6.1655 C   0  0  0  0  0  0  0  0  0  0  0  0
   -2.2509   26.4097    4.4981 O   0  0  0  0  0  0  0  0  0  0  0  0
   -3.2165   25.4041    5.0513 C   0  0  0  0  0  0  0  0  0  0  0  0
   -4.1822   24.3984    5.6046 C   0  0  0  0  0  0  0  0  0  0  0  0
   -4.5788   25.3693    6.6771 N   0  0  0  0  0  0  0  0  0  0  0  0
   -5.1479   23.3928    6.1579 C   0  0  0  0  0  0  0  0  0  0  0  0
   -6.1136   22.3872    6.7112 C   0  0  0  0  0  0  0  0  0  0  0  0
   -5.8907   21.2564    5.7512 F   0  0  0  0  0  0  0  0  0  0  0  0
   -7.1567   21.7742    7.5979 C   0  0  0  0  0  0  0  0  0  0  0  0
   -6.6719   23.1687    7.8634 C   0  0  0  0  0  0  0  0  0  0  0  0
    0.7399   27.0169    1.2619 C   0  0  0  0  0  0  0  0  0  0  0  0
    1.7589   27.8392    0.5300 C   0  0  0  0  0  0  0  0  0  0  0  0
    2.7779   28.6614   -0.2018 C   0  0  0  0  0  0  0  0  0  0  0  0
    2.4636   27.2699   -0.6655 C   0  0  0  0  0  0  0  0  0  0  0  0
    2.5397   23.9177   -2.7885 H   0  0  0  0  0  0  0  0  0  0  0  0
    3.8730   26.1314   -3.0567 H   0  0  0  0  0  0  0  0  0  0  0  0
    0.2499   23.8964   -0.0373 H   0  0  0  0  0  0  0  0  0  0  0  0
    0.8935   22.7267   -1.5231 H   0  0  0  0  0  0  0  0  0  0  0  0
   -0.3442   24.3474    0.9530 H   0  0  0  0  0  0  0  0  0  0  0  0
   -1.1595   25.0349    2.3538 H   0  0  0  0  0  0  0  0  0  0  0  0
    0.2251   28.2868    2.6400 H   0  0  0  0  0  0  0  0  0  0  0  0
   -1.6369   26.1577    3.6232 H   0  0  0  0  0  0  0  0  0  0  0  0
    0.5935   29.8818    3.1745 H   0  0  0  0  0  0  0  0  0  0  0  0
    0.5538   30.4314    5.8135 H   0  0  0  0  0  0  0  0  0  0  0  0
   -2.0000   30.5941    4.9215 H   0  0  0  0  0  0  0  0  0  0  0  0
   -1.6379   32.4125    7.4014 H   0  0  0  0  0  0  0  0  0  0  0  0
   -0.2876   32.4531    5.7659 H   0  0  0  0  0  0  0  0  0  0  0  0
   -2.1904   30.4277    6.8960 H   0  0  0  0  0  0  0  0  0  0  0  0
   -2.1017   28.7955    5.7746 H   0  0  0  0  0  0  0  0  0  0  0  0
   -4.1564   27.1492    7.2525 H   0  0  0  0  0  0  0  0  0  0  0  0
   -3.0094   28.7129    6.8154 H   0  0  0  0  0  0  0  0  0  0  0  0
   -3.4110   26.6272    6.0364 H   0  0  0  0  0  0  0  0  0  0  0  0
   -3.4325   25.9226    5.6170 H   0  0  0  0  0  0  0  0  0  0  0  0
   -2.8103   24.4284    3.9869 H   0  0  0  0  0  0  0  0  0  0  0  0
   -3.7856   23.4275    4.5322 H   0  0  0  0  0  0  0  0  0  0  0  0
   -5.5946   25.1535    7.7595 H   0  0  0  0  0  0  0  0  0  0  0  0
   -4.1544   26.7645    7.0284 H   0  0  0  0  0  0  0  0  0  0  0  0
   -4.6345   22.5507    5.0278 H   0  0  0  0  0  0  0  0  0  0  0  0
   -5.6613   24.2349    7.2881 H   0  0  0  0  0  0  0  0  0  0  0  0
   -7.2961   20.4306    6.9458 H   0  0  0  0  0  0  0  0  0  0  0  0
   -8.1515   21.6278    8.7111 H   0  0  0  0  0  0  0  0  0  0  0  0
   -7.4983   23.5066    9.0688 H   0  0  0  0  0  0  0  0  0  0  0  0
   -5.9916   24.5055    7.8574 H   0  0  0  0  0  0  0  0  0  0  0  0
    0.6404   28.2407    2.1235 H   0  0  0  0  0  0  0  0  0  0  0  0
    1.5336   28.9712    1.4880 H   0  0  0  0  0  0  0  0  0  0  0  0
    2.7329   29.9190    0.6145 H   0  0  0  0  0  0  0  0  0  0  0  0
    3.8126   29.0468   -1.2172 H   0  0  0  0  0  0  0  0  0  0  0  0
    3.4588   27.4160   -1.7783 H   0  0  0  0  0  0  0  0  0  0  0  0
  1  2  2  3
  2  3  1  0
  3  4  1  0
  3  5  1  0
  5  6  1  0
  6  7  1  0
  7  8  1  0
  8  9  2  3
  9 10  1  0
 10 11  1  0
  8 12  1  0
 12 13  1  0
 12 14  1  0
 14 15  1  0
 15 16  1  0
 16 17  1  0
 16 18  1  0
 18 19  1  0
 19 20  1  0
 19 21  1  0
 21 22  1  0
  6 23  1  0
 23 24  1  0
 24 25  1  0
 25 26  1  0
 26  2  1  0
 23  5  1  0
 26 24  1  0
 22 19  1  0
  1 27  1  0
  1 28  1  0
  3 29  1  1
  4 30  1  0
  5 31  1  6
  6 32  1  6
  7 33  1  0
  7 34  1  0
  9 35  1  0
 10 36  1  0
 10 37  1  0
 11 38  1  0
 11 39  1  0
 11 40  1  0
 12 41  1  1
 13 42  1  0
 13 43  1  0
 13 44  1  0
 15 45  1  0
 15 46  1  0
 16 47  1  1
 17 48  1  0
 17 49  1  0
 18 50  1  0
 18 51  1  0
 21 52  1  0
 21 53  1  0
 22 54  1  0
 22 55  1  0
 23 56  1  6
 24 57  1  6
 25 58  1  0
 25 59  1  0
 26 60  1  6
M  END
