
     RDKit          2D

 29 31  0  0  0  0  0  0  0  0999 V2000
   -5.4388   30.2186    5.3860 C   0  0  0  0  0  0  0  0  0  0  0  0
   -4.0139   30.0285    5.8143 C   0  0  0  0  0  0  0  0  0  0  0  0
   -2.8318   30.8047    5.3140 C   0  0  0  0  0  0  0  0  0  0  0  0
   -1.6082   30.2847    6.0085 C   0  0  0  0  0  0  0  0  0  0  0  0
   -2.0340   29.1872    6.9381 C   0  0  0  0  0  0  0  0  0  0  0  0
   -3.5208   29.0288    6.8180 C   0  0  0  0  0  0  0  0  0  0  0  0
   -4.9677   28.6447    6.9119 C   0  0  0  0  0  0  0  0  0  0  0  0
   -6.4147   28.2606    7.0058 C   0  0  0  0  0  0  0  0  0  0  0  0
   -7.4358   28.9739    6.1700 O   0  0  0  0  0  0  0  0  0  0  0  0
   -7.8616   27.8765    7.0997 C   0  0  0  0  0  0  0  0  0  0  0  0
   -6.8405   27.1631    7.9354 C   0  0  0  0  0  0  0  0  0  0  0  0
   -7.7280   26.1968    8.6626 C   0  0  0  0  0  0  0  0  0  0  0  0
   -7.1383   25.2340    9.6500 N   0  0  0  0  0  0  0  0  0  0  0  0
   -9.2052   26.1935    8.4022 O   0  0  0  0  0  0  0  0  0  0  0  0
   -6.1483   29.6574    5.7737 H   0  0  0  0  0  0  0  0  0  0  0  0
   -5.7826   31.2641    4.3669 H   0  0  0  0  0  0  0  0  0  0  0  0
   -1.8633   31.7300    4.6390 H   0  0  0  0  0  0  0  0  0  0  0  0
   -3.8529   31.5181    4.4783 H   0  0  0  0  0  0  0  0  0  0  0  0
   -0.2356   29.9809    6.5316 H   0  0  0  0  0  0  0  0  0  0  0  0
   -0.8954   31.3187    5.1883 H   0  0  0  0  0  0  0  0  0  0  0  0
   -2.1542   28.0741    7.9364 H   0  0  0  0  0  0  0  0  0  0  0  0
   -0.5724   29.1128    7.2668 H   0  0  0  0  0  0  0  0  0  0  0  0
   -3.3302   27.9489    7.8414 H   0  0  0  0  0  0  0  0  0  0  0  0
   -4.6240   27.5991    7.9311 H   0  0  0  0  0  0  0  0  0  0  0  0
   -5.4162   29.2493    6.2780 H   0  0  0  0  0  0  0  0  0  0  0  0
   -9.3086   27.4923    7.1936 H   0  0  0  0  0  0  0  0  0  0  0  0
   -5.5112   26.7854    8.5187 H   0  0  0  0  0  0  0  0  0  0  0  0
   -8.0259   24.2677   10.3771 H   0  0  0  0  0  0  0  0  0  0  0  0
   -5.6611   25.2373    9.9104 H   0  0  0  0  0  0  0  0  0  0  0  0
  1  2  2  3
  2  3  1  0
  3  4  1  0
  4  5  1  0
  5  6  1  0
  6  7  1  0
  7  8  1  0
  8  9  1  0
  9 10  1  0
 10 11  1  0
 11 12  1  0
 12 13  1  0
 12 14  2  0
  6  2  1  0
 10  8  1  0
 11  8  1  0
  1 15  1  0
  1 16  1  0
  3 17  1  0
  3 18  1  0
  4 19  1  0
  4 20  1  0
  5 21  1  0
  5 22  1  0
  6 23  1  0
  7 24  1  0
  7 25  1  0
 10 26  1  0
 11 27  1  0
 13 28  1  0
 13 29  1  0
M  END
