
     RDKit          2D

104112  0  0  0  0  0  0  0  0999 V2000
   -7.5956   25.4508   12.8883 C   0  0  0  0  0  0  0  0  0  0  0  0
   -7.2635   25.8343   11.4766 C   0  0  0  0  0  0  0  0  0  0  0  0
   -6.9315   26.2178   10.0650 C   0  0  0  0  0  0  0  0  0  0  0  0
   -6.5994   26.6012    8.6534 C   0  0  0  0  0  0  0  0  0  0  0  0
   -6.2671   26.9846    7.2418 C   0  0  0  0  0  0  0  0  0  0  0  0
   -5.2106   26.0638    8.8342 C   0  0  0  0  0  0  0  0  0  0  0  0
   -3.8219   25.5265    9.0150 C   0  0  0  0  0  0  0  0  0  0  0  0
   -2.4332   24.9891    9.1958 C   0  0  0  0  0  0  0  0  0  0  0  0
   -1.0444   24.4517    9.3766 C   0  0  0  0  0  0  0  0  0  0  0  0
   -0.4762   24.7361    8.0178 N   0  0  0  0  0  0  0  0  0  0  0  0
   -0.8547   25.3311    6.6939 C   0  0  0  0  0  0  0  0  0  0  0  0
   -0.7103   25.7826    5.2709 C   0  0  0  0  0  0  0  0  0  0  0  0
   -2.0748   26.0501    5.8335 C   0  0  0  0  0  0  0  0  0  0  0  0
   -3.4393   26.3176    6.3961 C   0  0  0  0  0  0  0  0  0  0  0  0
   -4.8038   26.5850    6.9589 C   0  0  0  0  0  0  0  0  0  0  0  0
   -6.2299   27.0428    7.0405 N   0  0  0  0  0  0  0  0  0  0  0  0
   -5.4551   27.2258    5.7693 C   0  0  0  0  0  0  0  0  0  0  0  0
   -6.5017   27.8822    4.9185 C   0  0  0  0  0  0  0  0  0  0  0  0
   -0.0624   26.0297    3.9407 C   0  0  0  0  0  0  0  0  0  0  0  0
    1.0014   26.0390    2.8832 C   0  0  0  0  0  0  0  0  0  0  0  0
    2.3373   25.8092    2.2411 C   0  0  0  0  0  0  0  0  0  0  0  0
    2.9399   26.0925    0.8520 C   0  0  0  0  0  0  0  0  0  0  0  0
    4.2908   25.8437    0.2493 C   0  0  0  0  0  0  0  0  0  0  0  0
    5.3669   25.1898    1.0645 C   0  0  0  0  0  0  0  0  0  0  0  0
    5.0920   24.7846    2.4823 C   0  0  0  0  0  0  0  0  0  0  0  0
    3.7651   25.3714    2.1012 C   0  0  0  0  0  0  0  0  0  0  0  0
    6.1386   24.1282    3.3330 C   0  0  0  0  0  0  0  0  0  0  0  0
    6.7637   23.4907    4.5385 C   0  0  0  0  0  0  0  0  0  0  0  0
    6.8827   22.9584    5.9358 C   0  0  0  0  0  0  0  0  0  0  0  0
    6.4797   22.6031    7.3362 N   0  0  0  0  0  0  0  0  0  0  0  0
    5.6091   22.4726    8.5507 C   0  0  0  0  0  0  0  0  0  0  0  0
    4.3885   22.5848    9.4152 C   0  0  0  0  0  0  0  0  0  0  0  0
    4.6384   22.0187   10.7816 N   0  0  0  0  0  0  0  0  0  0  0  0
    3.2325   22.3583   11.1794 C   0  0  0  0  0  0  0  0  0  0  0  0
    2.9826   22.9244    9.8130 C   0  0  0  0  0  0  0  0  0  0  0  0
    1.5814   23.4456    9.6903 N   0  0  0  0  0  0  0  0  0  0  0  0
    0.3741   24.0779    9.0637 C   0  0  0  0  0  0  0  0  0  0  0  0
    6.3607   23.1354    5.9389 C   0  0  0  0  0  0  0  0  0  0  0  0
    7.7485   22.8313    5.4578 C   0  0  0  0  0  0  0  0  0  0  0  0
    8.9377   22.7459    4.5476 C   0  0  0  0  0  0  0  0  0  0  0  0
    9.7270   22.0881    5.6405 C   0  0  0  0  0  0  0  0  0  0  0  0
   10.9162   22.0028    4.7302 C   0  0  0  0  0  0  0  0  0  0  0  0
   10.1269   22.6605    3.6373 C   0  0  0  0  0  0  0  0  0  0  0  0
   -7.9277   25.0673   14.2999 H   0  0  0  0  0  0  0  0  0  0  0  0
   -5.5979   25.6251   10.4120 H   0  0  0  0  0  0  0  0  0  0  0  0
   -5.5170   25.7187   10.0678 H   0  0  0  0  0  0  0  0  0  0  0  0
   -8.0182   27.0878    8.6460 H   0  0  0  0  0  0  0  0  0  0  0  0
   -6.2806   27.4877    5.8287 H   0  0  0  0  0  0  0  0  0  0  0  0
   -7.6846   27.4754    7.2358 H   0  0  0  0  0  0  0  0  0  0  0  0
   -4.9307   26.4005    7.5919 H   0  0  0  0  0  0  0  0  0  0  0  0
   -5.2786   26.3807   10.2987 H   0  0  0  0  0  0  0  0  0  0  0  0
   -5.3123   25.8148    7.3585 H   0  0  0  0  0  0  0  0  0  0  0  0
   -4.1551   25.1400   10.4255 H   0  0  0  0  0  0  0  0  0  0  0  0
   -3.3220   25.8446    7.6370 H   0  0  0  0  0  0  0  0  0  0  0  0
   -2.7661   24.6033   10.6066 H   0  0  0  0  0  0  0  0  0  0  0  0
   -2.1001   25.3749    7.7850 H   0  0  0  0  0  0  0  0  0  0  0  0
   -1.1304   23.9808   10.7982 H   0  0  0  0  0  0  0  0  0  0  0  0
   -1.9750   25.3624    7.6908 H   0  0  0  0  0  0  0  0  0  0  0  0
   -2.2356   25.8769    6.4814 H   0  0  0  0  0  0  0  0  0  0  0  0
   -1.7559   26.4391    4.4189 H   0  0  0  0  0  0  0  0  0  0  0  0
   -2.4977   26.6473    4.5241 H   0  0  0  0  0  0  0  0  0  0  0  0
   -1.6518   25.4529    7.1429 H   0  0  0  0  0  0  0  0  0  0  0  0
   -3.6920   26.8799    5.0287 H   0  0  0  0  0  0  0  0  0  0  0  0
   -2.8539   25.6900    7.6265 H   0  0  0  0  0  0  0  0  0  0  0  0
   -4.9745   26.1425    8.3819 H   0  0  0  0  0  0  0  0  0  0  0  0
   -7.6204   27.3517    7.5106 H   0  0  0  0  0  0  0  0  0  0  0  0
   -4.4303   27.2615    4.6744 H   0  0  0  0  0  0  0  0  0  0  0  0
   -7.5483   28.5386    4.0678 H   0  0  0  0  0  0  0  0  0  0  0  0
   -5.5316   27.9485    3.7763 H   0  0  0  0  0  0  0  0  0  0  0  0
   -7.4718   27.8159    6.0607 H   0  0  0  0  0  0  0  0  0  0  0  0
   -1.4639   26.5505    3.8194 H   0  0  0  0  0  0  0  0  0  0  0  0
   -0.6862   26.6670    2.7345 H   0  0  0  0  0  0  0  0  0  0  0  0
   -0.2067   26.6712    2.2579 H   0  0  0  0  0  0  0  0  0  0  0  0
    0.8836   26.5710    1.4856 H   0  0  0  0  0  0  0  0  0  0  0  0
    1.9179   26.4125    0.9334 H   0  0  0  0  0  0  0  0  0  0  0  0
    2.7190   26.6515   -0.5223 H   0  0  0  0  0  0  0  0  0  0  0  0
    1.5613   26.6407    0.6306 H   0  0  0  0  0  0  0  0  0  0  0  0
    5.4020   25.8192   -0.7580 H   0  0  0  0  0  0  0  0  0  0  0  0
    3.6007   26.4891   -0.9157 H   0  0  0  0  0  0  0  0  0  0  0  0
    6.7518   24.6481    1.2612 H   0  0  0  0  0  0  0  0  0  0  0  0
    6.1044   25.3923   -0.2259 H   0  0  0  0  0  0  0  0  0  0  0  0
    6.1239   24.8155    1.3941 H   0  0  0  0  0  0  0  0  0  0  0  0
    3.5559   25.9274    0.7239 H   0  0  0  0  0  0  0  0  0  0  0  0
    4.4926   25.5790    0.8059 H   0  0  0  0  0  0  0  0  0  0  0  0
    6.7852   24.3759    2.0024 H   0  0  0  0  0  0  0  0  0  0  0  0
    7.5447   23.7880    2.9366 H   0  0  0  0  0  0  0  0  0  0  0  0
    8.2699   22.6555    5.4519 H   0  0  0  0  0  0  0  0  0  0  0  0
    7.7353   22.3002    6.9797 H   0  0  0  0  0  0  0  0  0  0  0  0
    6.9908   21.9275    8.7605 H   0  0  0  0  0  0  0  0  0  0  0  0
    5.8156   21.9172    9.9288 H   0  0  0  0  0  0  0  0  0  0  0  0
    4.4671   23.0581    7.9940 H   0  0  0  0  0  0  0  0  0  0  0  0
    5.8091   21.3783   11.4666 H   0  0  0  0  0  0  0  0  0  0  0  0
    2.4151   22.1981   12.4269 H   0  0  0  0  0  0  0  0  0  0  0  0
    1.9640   22.8846   10.9134 H   0  0  0  0  0  0  0  0  0  0  0  0
    1.0537   23.1430   11.0615 H   0  0  0  0  0  0  0  0  0  0  0  0
    6.8259   22.5234    7.2269 H   0  0  0  0  0  0  0  0  0  0  0  0
    8.3203   22.2014    6.6932 H   0  0  0  0  0  0  0  0  0  0  0  0
    8.2993   23.3884    3.3519 H   0  0  0  0  0  0  0  0  0  0  0  0
   10.5162   21.4303    6.7334 H   0  0  0  0  0  0  0  0  0  0  0  0
    8.7640   22.0118    6.7881 H   0  0  0  0  0  0  0  0  0  0  0  0
   12.1054   21.9174    3.8201 H   0  0  0  0  0  0  0  0  0  0  0  0
   11.7054   21.3449    5.8232 H   0  0  0  0  0  0  0  0  0  0  0  0
    9.3377   23.3183    2.5445 H   0  0  0  0  0  0  0  0  0  0  0  0
   11.3162   22.5752    2.7272 H   0  0  0  0  0  0  0  0  0  0  0  0
  1  2  3  0
  2  3  1  0
  3  4  1  0
  4  5  1  0
  4  6  1  0
  6  7  1  0
  7  8  1  0
  8  9  1  0
  9 10  1  0
 10 11  1  0
 11 12  1  0
 12 13  1  0
 13 14  1  0
 14 15  1  0
 15 16  1  0
 16 17  1  0
 17 18  1  0
 12 19  1  0
 19 20  1  0
 20 21  1  0
 21 22  1  0
 22 23  1  0
 23 24  1  0
 24 25  1  0
 25 26  1  0
 25 27  1  0
 27 28  1  0
 28 29  1  0
 29 30  1  0
 30 31  1  0
 31 32  1  0
 32 33  1  0
 33 34  1  0
 34 35  1  0
 35 36  1  0
 36 37  1  0
 30 38  1  0
 38 39  1  0
 39 40  1  0
 40 41  1  0
 41 42  1  0
 42 43  1  0
 37  9  1  0
 43 40  1  0
 37 10  1  0
 17 15  1  0
 26 21  1  0
 38 28  1  0
 39 28  1  0
 35 32  1  0
 37 34  1  0
  1 44  1  0
  3 45  1  0
  3 46  1  0
  4 47  1  0
  5 48  1  0
  5 49  1  0
  5 50  1  0
  6 51  1  0
  6 52  1  0
  7 53  1  0
  7 54  1  0
  8 55  1  0
  8 56  1  0
  9 57  1  0
 11 58  1  0
 11 59  1  0
 12 60  1  0
 13 61  1  0
 13 62  1  0
 14 63  1  0
 14 64  1  0
 15 65  1  0
 16 66  1  0
 17 67  1  0
 18 68  1  0
 18 69  1  0
 18 70  1  0
 19 71  1  0
 19 72  1  0
 20 73  1  0
 20 74  1  0
 21 75  1  0
 22 76  1  0
 22 77  1  0
 23 78  1  0
 23 79  1  0
 24 80  1  0
 24 81  1  0
 25 82  1  0
 26 83  1  0
 26 84  1  0
 27 85  1  0
 27 86  1  0
 29 87  1  0
 29 88  1  0
 31 89  1  0
 31 90  1  0
 32 91  1  0
 33 92  1  0
 34 93  1  0
 35 94  1  0
 36 95  1  0
 38 96  1  0
 39 97  1  0
 40 98  1  0
 41 99  1  0
 41100  1  0
 42101  1  0
 42102  1  0
 43103  1  0
 43104  1  0
M  END
