
     RDKit          2D

 48 49  0  0  0  0  0  0  0  0999 V2000
   16.2851  -14.1782   -3.6486 C   0  0  0  0  0  0  0  0  0  0  0  0
   16.8167  -15.4041   -4.3300 C   0  0  0  0  0  0  0  0  0  0  0  0
   17.3483  -16.6302   -5.0115 C   0  0  0  0  0  0  0  0  0  0  0  0
   17.9933  -15.7694   -6.0569 Cl  0  0  0  0  0  0  0  0  0  0  0  0
   17.8798  -17.8562   -5.6929 C   0  0  0  0  0  0  0  0  0  0  0  0
   18.4114  -19.0821   -6.3744 C   0  0  0  0  0  0  0  0  0  0  0  0
   18.9430  -20.3081   -7.0560 C   0  0  0  0  0  0  0  0  0  0  0  0
   18.6633  -21.3354   -5.9994 C   0  0  0  0  0  0  0  0  0  0  0  0
   18.6019  -22.6646   -5.3070 C   0  0  0  0  0  0  0  0  0  0  0  0
   18.5406  -23.9938   -4.6146 C   0  0  0  0  0  0  0  0  0  0  0  0
   18.4792  -25.3230   -3.9222 C   0  0  0  0  0  0  0  0  0  0  0  0
   17.8292  -24.9155   -2.6332 C   0  0  0  0  0  0  0  0  0  0  0  0
   18.6436  -26.7939   -3.6774 C   0  0  0  0  0  0  0  0  0  0  0  0
   19.1079  -26.1922   -4.9706 C   0  0  0  0  0  0  0  0  0  0  0  0
   19.6396  -27.4182   -5.6522 O   0  0  0  0  0  0  0  0  0  0  0  0
   19.3133  -21.7429   -7.2884 C   0  0  0  0  0  0  0  0  0  0  0  0
   19.9063  -21.6397   -8.6623 C   0  0  0  0  0  0  0  0  0  0  0  0
   20.4993  -21.5365  -10.0363 N   0  0  0  0  0  0  0  0  0  0  0  0
   19.6260  -21.7023  -11.2444 C   0  0  0  0  0  0  0  0  0  0  0  0
   20.2190  -21.5991  -12.6184 O   0  0  0  0  0  0  0  0  0  0  0  0
   15.7536  -12.9522   -2.9672 H   0  0  0  0  0  0  0  0  0  0  0  0
   16.6565  -13.3524   -4.8445 H   0  0  0  0  0  0  0  0  0  0  0  0
   15.9137  -15.0039   -2.4527 H   0  0  0  0  0  0  0  0  0  0  0  0
   16.4808  -16.2230   -3.1190 H   0  0  0  0  0  0  0  0  0  0  0  0
   17.1526  -14.5854   -5.5411 H   0  0  0  0  0  0  0  0  0  0  0  0
   16.7032  -17.4910   -3.9661 H   0  0  0  0  0  0  0  0  0  0  0  0
   17.4968  -18.6840   -4.5022 H   0  0  0  0  0  0  0  0  0  0  0  0
   18.2628  -17.0283   -6.8837 H   0  0  0  0  0  0  0  0  0  0  0  0
   18.7898  -18.2550   -7.5672 H   0  0  0  0  0  0  0  0  0  0  0  0
   18.0151  -19.6866   -5.2342 H   0  0  0  0  0  0  0  0  0  0  0  0
   19.3076  -19.6225   -8.1603 H   0  0  0  0  0  0  0  0  0  0  0  0
   18.0827  -20.6903   -4.9654 H   0  0  0  0  0  0  0  0  0  0  0  0
   17.9563  -22.0159   -4.1186 H   0  0  0  0  0  0  0  0  0  0  0  0
   19.1719  -23.3901   -6.2925 H   0  0  0  0  0  0  0  0  0  0  0  0
   18.0219  -23.3421   -3.7301 H   0  0  0  0  0  0  0  0  0  0  0  0
   19.1303  -24.4265   -5.7492 H   0  0  0  0  0  0  0  0  0  0  0  0
   17.1791  -24.5080   -1.3443 H   0  0  0  0  0  0  0  0  0  0  0  0
   17.6280  -26.1599   -2.1497 H   0  0  0  0  0  0  0  0  0  0  0  0
   17.8818  -23.7152   -2.8138 H   0  0  0  0  0  0  0  0  0  0  0  0
   18.1437  -27.0479   -2.4493 H   0  0  0  0  0  0  0  0  0  0  0  0
   19.0140  -28.2287   -3.9098 H   0  0  0  0  0  0  0  0  0  0  0  0
   19.4225  -25.3911   -6.0108 H   0  0  0  0  0  0  0  0  0  0  0  0
   20.2325  -27.3148   -7.0261 H   0  0  0  0  0  0  0  0  0  0  0  0
   19.5294  -23.0737   -7.2180 H   0  0  0  0  0  0  0  0  0  0  0  0
   20.1599  -23.1181   -8.6640 H   0  0  0  0  0  0  0  0  0  0  0  0
   19.7449  -20.3077   -8.8115 H   0  0  0  0  0  0  0  0  0  0  0  0
   21.9657  -21.2673  -10.2020 H   0  0  0  0  0  0  0  0  0  0  0  0
   18.1597  -21.9715  -11.0788 H   0  0  0  0  0  0  0  0  0  0  0  0
  1  2  1  0
  2  3  1  0
  3  4  1  0
  3  5  1  0
  5  6  1  0
  6  7  1  0
  7  8  1  0
  8  9  1  0
  9 10  1  0
 10 11  1  0
 11 12  1  0
 11 13  1  0
 13 14  1  0
 14 15  1  0
  8 16  1  0
 16 17  1  0
 17 18  1  0
 18 19  1  0
 19 20  2  0
 16  7  1  0
 14 11  1  0
  1 21  1  0
  1 22  1  0
  1 23  1  0
  2 24  1  0
  2 25  1  0
  3 26  1  0
  5 27  1  0
  5 28  1  0
  6 29  1  0
  6 30  1  0
  7 31  1  0
  8 32  1  0
  9 33  1  0
  9 34  1  0
 10 35  1  0
 10 36  1  0
 12 37  1  0
 12 38  1  0
 12 39  1  0
 13 40  1  0
 13 41  1  0
 14 42  1  0
 15 43  1  0
 16 44  1  0
 17 45  1  0
 17 46  1  0
 18 47  1  0
 19 48  1  0
M  END
