
     RDKit          2D

 55 59  0  0  0  0  0  0  0  0999 V2000
    4.0940   28.4276    7.3691 C   0  0  0  0  0  0  0  0  0  0  0  0
    3.9354   26.9907    6.9690 C   0  0  0  0  0  0  0  0  0  0  0  0
    5.2103   26.2250    6.7734 C   0  0  0  0  0  0  0  0  0  0  0  0
    5.3875   24.7889    6.3779 C   0  0  0  0  0  0  0  0  0  0  0  0
    4.3336   23.7640    6.0802 C   0  0  0  0  0  0  0  0  0  0  0  0
    3.8470   22.3982    5.6955 C   0  0  0  0  0  0  0  0  0  0  0  0
    5.1598   21.6946    5.5177 C   0  0  0  0  0  0  0  0  0  0  0  0
    5.1878   20.2492    5.1176 C   0  0  0  0  0  0  0  0  0  0  0  0
    3.8751   20.9529    5.2955 C   0  0  0  0  0  0  0  0  0  0  0  0
    2.8421   23.9219    6.1046 C   0  0  0  0  0  0  0  0  0  0  0  0
    2.0362   25.1437    6.4326 C   0  0  0  0  0  0  0  0  0  0  0  0
    0.9823   24.1188    6.1349 C   0  0  0  0  0  0  0  0  0  0  0  0
    0.7612   25.9094    6.6282 C   0  0  0  0  0  0  0  0  0  0  0  0
   -0.0446   27.1314    6.9562 C   0  0  0  0  0  0  0  0  0  0  0  0
   -1.6256   27.0380    6.9098 C   0  0  0  0  0  0  0  0  0  0  0  0
   -1.1852   25.6547    6.5323 C   0  0  0  0  0  0  0  0  0  0  0  0
   -2.4128   24.8282    6.2874 C   0  0  0  0  0  0  0  0  0  0  0  0
   -1.1379   24.0625    6.0918 C   0  0  0  0  0  0  0  0  0  0  0  0
    0.2747   24.5437    6.2435 O   0  0  0  0  0  0  0  0  0  0  0  0
   -3.6118   25.7007    6.5135 N   0  0  0  0  0  0  0  0  0  0  0  0
   -3.1252   27.0665    6.8982 C   0  0  0  0  0  0  0  0  0  0  0  0
   -4.5871   27.3948    6.9701 N   0  0  0  0  0  0  0  0  0  0  0  0
    2.5227   26.5095    6.8173 C   0  0  0  0  0  0  0  0  0  0  0  0
    5.4650   29.0093    7.5481 H   0  0  0  0  0  0  0  0  0  0  0  0
    2.8816   29.2828    7.5903 H   0  0  0  0  0  0  0  0  0  0  0  0
    6.7100   26.2435    6.7980 H   0  0  0  0  0  0  0  0  0  0  0  0
    5.6969   27.5907    7.1581 H   0  0  0  0  0  0  0  0  0  0  0  0
    6.3416   23.6704    6.0804 H   0  0  0  0  0  0  0  0  0  0  0  0
    6.8511   25.1005    6.4832 H   0  0  0  0  0  0  0  0  0  0  0  0
    5.5027   22.8545    5.8435 H   0  0  0  0  0  0  0  0  0  0  0  0
    3.0530   22.3329    5.6671 H   0  0  0  0  0  0  0  0  0  0  0  0
    6.4445   22.4364    5.7399 H   0  0  0  0  0  0  0  0  0  0  0  0
    6.6695   20.0199    5.0734 H   0  0  0  0  0  0  0  0  0  0  0  0
    4.7012   18.8835    4.7329 H   0  0  0  0  0  0  0  0  0  0  0  0
    2.5904   20.2111    5.0733 H   0  0  0  0  0  0  0  0  0  0  0  0
    1.5015   23.2781    5.9088 H   0  0  0  0  0  0  0  0  0  0  0  0
    2.8391   23.1537    5.8917 H   0  0  0  0  0  0  0  0  0  0  0  0
    0.0663   22.9772    5.8068 H   0  0  0  0  0  0  0  0  0  0  0  0
    1.7627   22.8817    5.8024 H   0  0  0  0  0  0  0  0  0  0  0  0
   -0.2054   25.0055    6.3652 H   0  0  0  0  0  0  0  0  0  0  0  0
    1.8153   26.9344    6.9258 H   0  0  0  0  0  0  0  0  0  0  0  0
    1.2960   27.7751    7.1520 H   0  0  0  0  0  0  0  0  0  0  0  0
   -0.0389   28.5769    7.3567 H   0  0  0  0  0  0  0  0  0  0  0  0
   -0.8772   28.2884    7.2659 H   0  0  0  0  0  0  0  0  0  0  0  0
    0.2958   25.8776    6.6133 H   0  0  0  0  0  0  0  0  0  0  0  0
    0.1637   25.0183    6.3735 H   0  0  0  0  0  0  0  0  0  0  0  0
   -2.6197   23.3971    5.8882 H   0  0  0  0  0  0  0  0  0  0  0  0
   -2.0538   22.9209    5.7636 H   0  0  0  0  0  0  0  0  0  0  0  0
   -0.4922   22.7556    5.7381 H   0  0  0  0  0  0  0  0  0  0  0  0
   -5.0456   25.2811    6.3786 H   0  0  0  0  0  0  0  0  0  0  0  0
   -2.9443   28.5009    7.2979 H   0  0  0  0  0  0  0  0  0  0  0  0
   -5.0274   28.7781    7.3476 H   0  0  0  0  0  0  0  0  0  0  0  0
   -5.6087   26.3398    6.6646 H   0  0  0  0  0  0  0  0  0  0  0  0
    2.3455   27.9455    7.2128 H   0  0  0  0  0  0  0  0  0  0  0  0
    1.0618   26.8413    6.8902 H   0  0  0  0  0  0  0  0  0  0  0  0
  1  2  2  3
  2  3  1  0
  3  4  1  0
  4  5  1  0
  5  6  1  0
  6  7  1  0
  7  8  1  0
  8  9  1  0
  5 10  1  0
 10 11  1  0
 11 12  1  0
 11 13  1  0
 13 14  1  0
 14 15  1  0
 15 16  1  0
 16 17  1  0
 17 18  1  0
 18 19  1  0
 17 20  1  0
 20 21  1  0
 21 22  1  0
 11 23  1  0
 23  2  1  0
  9  6  1  0
 19 13  1  0
  9  7  1  0
 21 15  1  0
  1 24  1  0
  1 25  1  0
  3 26  1  0
  3 27  1  0
  4 28  1  0
  4 29  1  0
  5 30  1  0
  6 31  1  0
  7 32  1  0
  8 33  1  0
  8 34  1  0
  9 35  1  0
 10 36  1  0
 10 37  1  0
 12 38  1  0
 12 39  1  0
 12 40  1  0
 13 41  1  0
 14 42  1  0
 14 43  1  0
 15 44  1  0
 16 45  1  0
 16 46  1  0
 17 47  1  0
 18 48  1  0
 18 49  1  0
 20 50  1  0
 21 51  1  0
 22 52  1  0
 22 53  1  0
 23 54  1  0
 23 55  1  0
M  END
