
     RDKit          2D

 56 58  0  0  0  0  0  0  0  0999 V2000
   12.6318  -18.6313   -5.6296 C   0  0  0  0  0  0  0  0  0  0  0  0
   13.2955  -18.6942   -6.9732 C   0  0  0  0  0  0  0  0  0  0  0  0
   13.9594  -18.7571   -8.3169 C   0  0  0  0  0  0  0  0  0  0  0  0
   14.6232  -18.8199   -9.6605 C   0  0  0  0  0  0  0  0  0  0  0  0
   15.2871  -18.8828  -11.0042 C   0  0  0  0  0  0  0  0  0  0  0  0
   14.5843  -20.1766  -11.2909 O   0  0  0  0  0  0  0  0  0  0  0  0
   14.7062  -20.5514  -11.9837 Br  0  0  0  0  0  0  0  0  0  0  0  0
   15.9509  -18.9456  -12.3479 C   0  0  0  0  0  0  0  0  0  0  0  0
   16.9436  -18.6901  -13.4429 C   0  0  0  0  0  0  0  0  0  0  0  0
   17.1286  -18.0507  -12.0986 C   0  0  0  0  0  0  0  0  0  0  0  0
   18.3948  -17.2855  -12.3461 N   0  0  0  0  0  0  0  0  0  0  0  0
   14.3739  -17.7737   -6.4835 C   0  0  0  0  0  0  0  0  0  0  0  0
   13.9072  -17.5516   -5.0755 C   0  0  0  0  0  0  0  0  0  0  0  0
   13.0019  -17.7128   -3.8903 C   0  0  0  0  0  0  0  0  0  0  0  0
   12.7901  -17.3094   -2.4612 C   0  0  0  0  0  0  0  0  0  0  0  0
   13.3527  -16.4952   -1.3340 C   0  0  0  0  0  0  0  0  0  0  0  0
   14.4747  -15.5814   -0.9392 C   0  0  0  0  0  0  0  0  0  0  0  0
   15.7277  -14.9169   -1.4277 C   0  0  0  0  0  0  0  0  0  0  0  0
   16.6329  -14.7556   -2.6127 C   0  0  0  0  0  0  0  0  0  0  0  0
   16.8448  -15.1590   -4.0419 C   0  0  0  0  0  0  0  0  0  0  0  0
   16.2822  -15.9732   -5.1691 C   0  0  0  0  0  0  0  0  0  0  0  0
   15.1601  -16.8871   -5.5639 C   0  0  0  0  0  0  0  0  0  0  0  0
   12.1044  -18.4563   -4.2363 H   0  0  0  0  0  0  0  0  0  0  0  0
   11.8410  -19.2089   -5.7273 H   0  0  0  0  0  0  0  0  0  0  0  0
   13.7086  -17.7084   -5.1410 H   0  0  0  0  0  0  0  0  0  0  0  0
   12.2172  -19.6147   -7.4630 H   0  0  0  0  0  0  0  0  0  0  0  0
   12.8801  -19.6764   -8.8071 H   0  0  0  0  0  0  0  0  0  0  0  0
   15.1115  -17.8523   -7.9941 H   0  0  0  0  0  0  0  0  0  0  0  0
   15.7003  -17.8975   -9.1716 H   0  0  0  0  0  0  0  0  0  0  0  0
   13.5462  -19.7424  -10.1495 H   0  0  0  0  0  0  0  0  0  0  0  0
   15.9898  -17.5890  -10.7175 H   0  0  0  0  0  0  0  0  0  0  0  0
   15.0037  -19.8624  -13.0637 H   0  0  0  0  0  0  0  0  0  0  0  0
   16.3412  -19.5181  -14.5390 H   0  0  0  0  0  0  0  0  0  0  0  0
   18.1456  -18.1470  -14.1572 H   0  0  0  0  0  0  0  0  0  0  0  0
   17.1599  -17.7162  -11.2791 H   0  0  0  0  0  0  0  0  0  0  0  0
   19.0585  -17.3482  -13.6898 H   0  0  0  0  0  0  0  0  0  0  0  0
   18.9974  -16.4577  -11.2499 H   0  0  0  0  0  0  0  0  0  0  0  0
   15.3243  -17.5651   -7.6252 H   0  0  0  0  0  0  0  0  0  0  0  0
   12.7750  -18.4631   -5.4461 H   0  0  0  0  0  0  0  0  0  0  0  0
   11.7358  -18.4504   -3.5694 H   0  0  0  0  0  0  0  0  0  0  0  0
   11.9725  -18.6355   -4.4725 H   0  0  0  0  0  0  0  0  0  0  0  0
   11.7837  -17.5802   -1.3825 H   0  0  0  0  0  0  0  0  0  0  0  0
   11.6048  -18.2009   -2.6855 H   0  0  0  0  0  0  0  0  0  0  0  0
   12.9903  -16.1959    0.0905 H   0  0  0  0  0  0  0  0  0  0  0  0
   12.1316  -17.0767   -0.6854 H   0  0  0  0  0  0  0  0  0  0  0  0
   14.8948  -14.8262    0.2869 H   0  0  0  0  0  0  0  0  0  0  0  0
   13.6842  -15.6307    0.3346 H   0  0  0  0  0  0  0  0  0  0  0  0
   16.7698  -13.9943   -0.8682 H   0  0  0  0  0  0  0  0  0  0  0  0
   15.6697  -14.4153   -0.0152 H   0  0  0  0  0  0  0  0  0  0  0  0
   17.8990  -14.0180   -2.9337 H   0  0  0  0  0  0  0  0  0  0  0  0
   17.3297  -13.8946   -1.6012 H   0  0  0  0  0  0  0  0  0  0  0  0
   17.8512  -14.8882   -5.1206 H   0  0  0  0  0  0  0  0  0  0  0  0
   18.0300  -14.2675   -3.8175 H   0  0  0  0  0  0  0  0  0  0  0  0
   16.6446  -16.2726   -6.5936 H   0  0  0  0  0  0  0  0  0  0  0  0
   17.5033  -15.3918   -5.8177 H   0  0  0  0  0  0  0  0  0  0  0  0
   15.8429  -16.9343   -6.8987 H   0  0  0  0  0  0  0  0  0  0  0  0
  1  2  1  0
  2  3  1  0
  3  4  1  0
  4  5  1  0
  5  6  1  0
  6  7  1  0
  5  8  1  0
  8  9  1  0
  9 10  1  0
 10 11  1  0
  2 12  1  0
 12 13  1  0
 13 14  1  0
 14 15  1  0
 15 16  1  0
 16 17  1  0
 17 18  1  0
 18 19  1  0
 19 20  1  0
 20 21  1  0
 21 22  1  0
 10  8  1  0
 22 12  1  0
 22 13  1  0
  1 23  1  0
  1 24  1  0
  1 25  1  0
  2 26  1  0
  3 27  1  0
  3 28  1  0
  4 29  1  0
  4 30  1  0
  5 31  1  0
  8 32  1  0
  9 33  1  0
  9 34  1  0
 10 35  1  0
 11 36  1  0
 11 37  1  0
 12 38  1  0
 13 39  1  0
 14 40  1  0
 14 41  1  0
 15 42  1  0
 15 43  1  0
 16 44  1  0
 16 45  1  0
 17 46  1  0
 17 47  1  0
 18 48  1  0
 18 49  1  0
 19 50  1  0
 19 51  1  0
 20 52  1  0
 20 53  1  0
 21 54  1  0
 21 55  1  0
 22 56  1  0
M  END
