
     RDKit          2D

 23 23  0  0  0  0  0  0  0  0999 V2000
    0.0512   18.7107    2.0053 N   0  0  0  0  0  0  0  0  0  0  0  0
    0.1836   19.8385    1.0253 C   0  0  0  0  0  0  0  0  0  0  0  0
    1.4288   20.2991    1.7233 O   0  0  0  0  0  0  0  0  0  0  0  0
    0.3160   20.9663    0.0452 C   0  0  0  0  0  0  0  0  0  0  0  0
    0.8662   22.1836   -0.6370 C   0  0  0  0  0  0  0  0  0  0  0  0
    0.1672   22.7516   -1.8365 O   0  0  0  0  0  0  0  0  0  0  0  0
   -1.0822   22.1023   -2.3537 C   0  0  0  0  0  0  0  0  0  0  0  0
   -1.6324   20.8850   -1.6715 C   0  0  0  0  0  0  0  0  0  0  0  0
   -2.6447   21.0501   -2.7660 O   0  0  0  0  0  0  0  0  0  0  0  0
   -0.9333   20.3171   -0.4720 C   0  0  0  0  0  0  0  0  0  0  0  0
    1.0636   18.5456    3.0999 H   0  0  0  0  0  0  0  0  0  0  0  0
   -1.0933   17.7480    1.8909 H   0  0  0  0  0  0  0  0  0  0  0  0
   -0.4817   19.5226    0.7205 H   0  0  0  0  0  0  0  0  0  0  0  0
    1.9368   19.5527    2.9213 H   0  0  0  0  0  0  0  0  0  0  0  0
    1.5194   21.2240    0.9028 H   0  0  0  0  0  0  0  0  0  0  0  0
    1.8785   22.0185    0.4575 H   0  0  0  0  0  0  0  0  0  0  0  0
    1.7680   23.3435   -0.9392 H   0  0  0  0  0  0  0  0  0  0  0  0
   -0.9498   23.2301   -3.3338 H   0  0  0  0  0  0  0  0  0  0  0  0
   -2.2856   21.8446   -3.2114 H   0  0  0  0  0  0  0  0  0  0  0  0
   -2.5342   19.7251   -1.3694 H   0  0  0  0  0  0  0  0  0  0  0  0
   -3.7894   20.0874   -2.8805 H   0  0  0  0  0  0  0  0  0  0  0  0
   -2.0780   19.3544   -0.5865 H   0  0  0  0  0  0  0  0  0  0  0  0
   -0.8531   19.7880    0.1189 H   0  0  0  0  0  0  0  0  0  0  0  0
  1  2  1  0
  2  3  1  0
  2  4  1  0
  4  5  1  0
  5  6  1  0
  6  7  1  0
  7  8  1  0
  8  9  1  0
  8 10  1  0
 10  4  1  0
  1 11  1  0
  1 12  1  0
  2 13  1  0
  3 14  1  0
  4 15  1  0
  5 16  1  0
  5 17  1  0
  7 18  1  0
  7 19  1  0
  8 20  1  0
  9 21  1  0
 10 22  1  0
 10 23  1  0
M  END
