
     RDKit          2D

107112  0  0  0  0  0  0  0  0999 V2000
    6.9578   19.9858    9.7988 C   0  0  0  0  0  0  0  0  0  0  0  0
    6.3639   21.3626    9.7628 C   0  0  0  0  0  0  0  0  0  0  0  0
    5.8744   21.9345    8.4653 C   0  0  0  0  0  0  0  0  0  0  0  0
    5.3849   22.5065    7.1679 C   0  0  0  0  0  0  0  0  0  0  0  0
    4.8953   23.0783    5.8705 C   0  0  0  0  0  0  0  0  0  0  0  0
    4.4058   23.6502    4.5731 C   0  0  0  0  0  0  0  0  0  0  0  0
    3.9163   24.2221    3.2756 C   0  0  0  0  0  0  0  0  0  0  0  0
    3.4267   24.7941    1.9782 C   0  0  0  0  0  0  0  0  0  0  0  0
    2.9371   25.3659    0.6809 C   0  0  0  0  0  0  0  0  0  0  0  0
    2.4476   25.9378   -0.6166 C   0  0  0  0  0  0  0  0  0  0  0  0
    1.9581   26.5097   -1.9140 C   0  0  0  0  0  0  0  0  0  0  0  0
    3.4071   26.8544   -1.7360 C   0  0  0  0  0  0  0  0  0  0  0  0
    4.8560   27.1992   -1.5579 C   0  0  0  0  0  0  0  0  0  0  0  0
    2.4256   27.3093   -3.0939 O   0  0  0  0  0  0  0  0  0  0  0  0
    1.6449   27.7411   -4.2996 C   0  0  0  0  0  0  0  0  0  0  0  0
    0.2038   27.4799   -4.6235 C   0  0  0  0  0  0  0  0  0  0  0  0
   -1.1988   27.3349   -5.1351 C   0  0  0  0  0  0  0  0  0  0  0  0
   -0.8126   26.7224   -3.8215 C   0  0  0  0  0  0  0  0  0  0  0  0
   -2.2341   26.2485   -3.7524 Se  0  0  0  0  0  2  0  0  0  0  0  0
   -0.6387   26.0390   -2.4975 C   0  0  0  0  0  0  0  0  0  0  0  0
    0.5943   25.9444   -1.6486 C   0  0  0  0  0  0  0  0  0  0  0  0
    1.0838   25.3724   -0.3512 C   0  0  0  0  0  0  0  0  0  0  0  0
   -0.1068   24.6783    0.2409 O   0  0  0  0  0  0  0  0  0  0  0  0
    1.2037   24.6737    0.9707 C   0  0  0  0  0  0  0  0  0  0  0  0
    0.8225   23.8810    2.1856 C   0  0  0  0  0  0  0  0  0  0  0  0
    0.4413   23.0882    3.4007 C   0  0  0  0  0  0  0  0  0  0  0  0
    0.0600   22.2955    4.6156 C   0  0  0  0  0  0  0  0  0  0  0  0
   -0.3212   21.5027    5.8307 O   0  0  0  0  0  0  0  0  0  0  0  0
    6.2595   22.1677   11.0241 C   0  0  0  0  0  0  0  0  0  0  0  0
    6.1551   22.9728   12.2854 C   0  0  0  0  0  0  0  0  0  0  0  0
    6.0508   23.7780   13.5467 C   0  0  0  0  0  0  0  0  0  0  0  0
    5.9465   24.5831   14.8080 C   0  0  0  0  0  0  0  0  0  0  0  0
    4.6201   23.8847   14.8650 C   0  0  0  0  0  0  0  0  0  0  0  0
    3.2938   23.1864   14.9220 N   0  0  0  0  0  0  0  0  0  0  0  0
    4.3044   24.5893   16.1511 C   0  0  0  0  0  0  0  0  0  0  0  0
    3.9887   25.2938   17.4371 N   0  0  0  0  0  0  0  0  0  0  0  0
    5.6307   25.2876   16.0941 C   0  0  0  0  0  0  0  0  0  0  0  0
    6.7946   26.1694   16.4373 C   0  0  0  0  0  0  0  0  0  0  0  0
    5.9667   26.5291   17.6354 C   0  0  0  0  0  0  0  0  0  0  0  0
    7.8296   26.0100   15.3634 C   0  0  0  0  0  0  0  0  0  0  0  0
    7.3054   25.0295   14.3565 C   0  0  0  0  0  0  0  0  0  0  0  0
    8.6119   25.2820   13.6641 C   0  0  0  0  0  0  0  0  0  0  0  0
    7.0544   24.1018   13.2047 Si  0  0  0  0  0  4  0  0  0  0  0  0
    7.4473   19.4138   11.0963 H   0  0  0  0  0  0  0  0  0  0  0  0
    7.0621   19.1807    8.5375 H   0  0  0  0  0  0  0  0  0  0  0  0
    4.5609   21.2347    8.6524 H   0  0  0  0  0  0  0  0  0  0  0  0
    7.1879   22.6344    8.2783 H   0  0  0  0  0  0  0  0  0  0  0  0
    6.6406   23.3188    7.0522 H   0  0  0  0  0  0  0  0  0  0  0  0
    4.1292   21.6941    7.2836 H   0  0  0  0  0  0  0  0  0  0  0  0
    3.6384   22.2682    5.9876 H   0  0  0  0  0  0  0  0  0  0  0  0
    6.1522   23.8885    5.7534 H   0  0  0  0  0  0  0  0  0  0  0  0
    2.9961   23.3065    4.9535 H   0  0  0  0  0  0  0  0  0  0  0  0
    5.8155   23.9939    4.1927 H   0  0  0  0  0  0  0  0  0  0  0  0
    2.4984   24.0299    3.7259 H   0  0  0  0  0  0  0  0  0  0  0  0
    5.3341   24.4144    2.8254 H   0  0  0  0  0  0  0  0  0  0  0  0
    2.2368   23.9237    2.2550 H   0  0  0  0  0  0  0  0  0  0  0  0
    4.6857   25.6006    1.8587 H   0  0  0  0  0  0  0  0  0  0  0  0
    2.1358   24.6898    0.9911 H   0  0  0  0  0  0  0  0  0  0  0  0
    4.1923   26.1792    0.5657 H   0  0  0  0  0  0  0  0  0  0  0  0
    3.1987   26.1990   -0.6726 H   0  0  0  0  0  0  0  0  0  0  0  0
    3.3706   27.6606   -3.0004 H   0  0  0  0  0  0  0  0  0  0  0  0
    3.5202   26.4516   -1.0575 H   0  0  0  0  0  0  0  0  0  0  0  0
    6.3050   27.5439   -1.3799 H   0  0  0  0  0  0  0  0  0  0  0  0
    4.8583   27.8797   -2.8947 H   0  0  0  0  0  0  0  0  0  0  0  0
    4.8537   26.5187   -0.2212 H   0  0  0  0  0  0  0  0  0  0  0  0
    3.0087   28.3065   -4.5651 H   0  0  0  0  0  0  0  0  0  0  0  0
    1.4711   28.4245   -5.6236 H   0  0  0  0  0  0  0  0  0  0  0  0
    0.4617   28.2578   -5.8798 H   0  0  0  0  0  0  0  0  0  0  0  0
   -1.0841   28.0887   -6.4269 H   0  0  0  0  0  0  0  0  0  0  0  0
   -2.6413   26.9281   -5.1980 H   0  0  0  0  0  0  0  0  0  0  0  0
   -2.8653   25.4445   -2.6547 H   0  0  0  0  0  0  0  0  0  0  0  0
   -2.0876   25.6870   -2.6625 H   0  0  0  0  0  0  0  0  0  0  0  0
   -1.2701   25.2349   -1.3998 H   0  0  0  0  0  0  0  0  0  0  0  0
   -0.4116   25.1842   -0.8361 H   0  0  0  0  0  0  0  0  0  0  0  0
    2.5716   24.7531    1.5810 H   0  0  0  0  0  0  0  0  0  0  0  0
    2.1656   23.9116    2.8529 H   0  0  0  0  0  0  0  0  0  0  0  0
   -0.5776   23.7527    1.6627 H   0  0  0  0  0  0  0  0  0  0  0  0
   -0.9568   22.9535    2.8741 H   0  0  0  0  0  0  0  0  0  0  0  0
    1.8393   23.2229    3.9272 H   0  0  0  0  0  0  0  0  0  0  0  0
    1.4583   22.4297    5.1419 H   0  0  0  0  0  0  0  0  0  0  0  0
   -1.3382   22.1612    4.0894 H   0  0  0  0  0  0  0  0  0  0  0  0
   -1.7225   20.9894    5.9819 H   0  0  0  0  0  0  0  0  0  0  0  0
    7.7546   22.2761   11.0787 H   0  0  0  0  0  0  0  0  0  0  0  0
    4.7644   22.0594   10.9695 H   0  0  0  0  0  0  0  0  0  0  0  0
    4.7961   22.3926   12.5433 H   0  0  0  0  0  0  0  0  0  0  0  0
    7.5168   23.4506   11.8757 H   0  0  0  0  0  0  0  0  0  0  0  0
    7.3954   24.1448   12.9922 H   0  0  0  0  0  0  0  0  0  0  0  0
    4.7140   23.1053   13.6480 H   0  0  0  0  0  0  0  0  0  0  0  0
    4.7718   23.1003   13.5954 H   0  0  0  0  0  0  0  0  0  0  0  0
    2.2920   23.2410   16.0370 H   0  0  0  0  0  0  0  0  0  0  0  0
    2.8516   22.3223   13.7784 H   0  0  0  0  0  0  0  0  0  0  0  0
    2.9496   23.9820   16.3643 H   0  0  0  0  0  0  0  0  0  0  0  0
    2.6716   25.0610   18.1160 H   0  0  0  0  0  0  0  0  0  0  0  0
    4.8677   26.2573   18.1780 H   0  0  0  0  0  0  0  0  0  0  0  0
    5.1114   25.8742   17.3732 H   0  0  0  0  0  0  0  0  0  0  0  0
    7.7853   27.1265   17.0310 H   0  0  0  0  0  0  0  0  0  0  0  0
    5.1388   26.8887   18.8334 H   0  0  0  0  0  0  0  0  0  0  0  0
    7.2071   26.9502   18.3661 H   0  0  0  0  0  0  0  0  0  0  0  0
    4.6346   26.1548   17.0561 H   0  0  0  0  0  0  0  0  0  0  0  0
    8.6039   27.0003   16.1816 H   0  0  0  0  0  0  0  0  0  0  0  0
    9.0971   26.1779   14.5791 H   0  0  0  0  0  0  0  0  0  0  0  0
    9.9184   25.5345   12.9717 H   0  0  0  0  0  0  0  0  0  0  0  0
    9.1562   26.2682   14.6546 H   0  0  0  0  0  0  0  0  0  0  0  0
    8.3862   24.3574   12.5048 H   0  0  0  0  0  0  0  0  0  0  0  0
    7.3004   23.3618   11.9234 H   0  0  0  0  0  0  0  0  0  0  0  0
    8.3538   24.3375   12.4935 H   0  0  0  0  0  0  0  0  0  0  0  0
    5.6934   23.5364   13.4841 H   0  0  0  0  0  0  0  0  0  0  0  0
  1  2  2  3
  2  3  1  0
  3  4  1  0
  4  5  1  0
  5  6  1  0
  6  7  1  0
  7  8  1  0
  8  9  1  0
  9 10  1  0
 10 11  1  0
 11 12  1  0
 12 13  1  0
 11 14  1  0
 14 15  1  0
 15 16  1  0
 16 17  1  0
 17 18  1  0
 18 19  1  0
 18 20  1  0
 20 21  1  0
 21 22  1  0
 22 23  1  0
 23 24  1  0
 24 25  1  0
 25 26  1  0
 26 27  1  0
 27 28  1  0
  2 29  1  0
 29 30  1  0
 30 31  1  0
 31 32  1  0
 32 33  1  0
 33 34  1  0
 33 35  1  0
 35 36  1  0
 35 37  1  0
 37 38  1  0
 38 39  1  0
 38 40  1  0
 40 41  1  0
 41 42  1  0
 41 43  1  0
 22 10  1  0
 37 32  1  0
 21 11  1  0
 24 22  1  0
 41 32  1  0
 18 16  1  0
  1 44  1  0
  1 45  1  0
  3 46  1  0
  3 47  1  0
  4 48  1  0
  4 49  1  0
  5 50  1  0
  5 51  1  0
  6 52  1  0
  6 53  1  0
  7 54  1  0
  7 55  1  0
  8 56  1  0
  8 57  1  0
  9 58  1  0
  9 59  1  0
 10 60  1  0
 12 61  1  0
 12 62  1  0
 13 63  1  0
 13 64  1  0
 13 65  1  0
 15 66  1  0
 15 67  1  0
 16 68  1  0
 17 69  1  0
 17 70  1  0
 19 71  1  0
 20 72  1  0
 20 73  1  0
 21 74  1  0
 24 75  1  0
 25 76  1  0
 25 77  1  0
 26 78  1  0
 26 79  1  0
 27 80  1  0
 27 81  1  0
 28 82  1  0
 29 83  1  0
 29 84  1  0
 30 85  1  0
 30 86  1  0
 31 87  1  0
 31 88  1  0
 33 89  1  0
 34 90  1  0
 34 91  1  0
 35 92  1  0
 36 93  1  0
 36 94  1  0
 37 95  1  0
 38 96  1  0
 39 97  1  0
 39 98  1  0
 39 99  1  0
 40100  1  0
 40101  1  0
 42102  1  0
 42103  1  0
 42104  1  0
 43105  1  0
 43106  1  0
 43107  1  0
M  END
