
     RDKit          2D

 54 55  0  0  0  0  0  0  0  0999 V2000
    7.1880   31.4914    0.8384 C   0  0  0  0  0  0  0  0  0  0  0  0
    6.4848   30.5409    1.7615 C   0  0  0  0  0  0  0  0  0  0  0  0
    5.7816   29.5905    2.6846 C   0  0  0  0  0  0  0  0  0  0  0  0
    5.0784   28.6400    3.6077 Si  0  0  0  0  0  4  0  0  0  0  0  0
    5.5166   29.1911    4.9322 C   0  0  0  0  0  0  0  0  0  0  0  0
    4.6122   27.9956    4.8794 C   0  0  0  0  0  0  0  0  0  0  0  0
    3.7679   26.8906    4.3172 C   0  0  0  0  0  0  0  0  0  0  0  0
    2.9235   25.7856    3.7550 C   0  0  0  0  0  0  0  0  0  0  0  0
    2.0791   24.6807    3.1927 C   0  0  0  0  0  0  0  0  0  0  0  0
    2.5809   25.3398    5.1456 C   0  0  0  0  0  0  0  0  0  0  0  0
    2.2383   24.8940    6.5362 C   0  0  0  0  0  0  0  0  0  0  0  0
    1.8957   24.4482    7.9269 C   0  0  0  0  0  0  0  0  0  0  0  0
    1.5532   24.0024    9.3175 C   0  0  0  0  0  0  0  0  0  0  0  0
    1.2106   23.5566   10.7082 C   0  0  0  0  0  0  0  0  0  0  0  0
    0.8680   23.1108   12.0989 C   0  0  0  0  0  0  0  0  0  0  0  0
    0.5255   22.6650   13.4895 C   0  0  0  0  0  0  0  0  0  0  0  0
    1.7109   24.2169   12.6611 C   0  0  0  0  0  0  0  0  0  0  0  0
    1.3942   23.7888    5.9740 C   0  0  0  0  0  0  0  0  0  0  0  0
    0.4835   22.5981    5.9213 C   0  0  0  0  0  0  0  0  0  0  0  0
    0.9093   23.1586    7.2459 C   0  0  0  0  0  0  0  0  0  0  0  0
    7.8913   32.4419   -0.0847 H   0  0  0  0  0  0  0  0  0  0  0  0
    6.3678   30.3437    3.6394 H   0  0  0  0  0  0  0  0  0  0  0  0
    5.2117   28.8640    1.5024 H   0  0  0  0  0  0  0  0  0  0  0  0
    4.5339   27.9417    2.5887 H   0  0  0  0  0  0  0  0  0  0  0  0
    5.6578   29.3456    6.4175 H   0  0  0  0  0  0  0  0  0  0  0  0
    6.3130   30.2504    4.6751 H   0  0  0  0  0  0  0  0  0  0  0  0
    4.4392   27.7349    6.3464 H   0  0  0  0  0  0  0  0  0  0  0  0
    3.6332   26.7047    5.1727 H   0  0  0  0  0  0  0  0  0  0  0  0
    3.9730   27.1739    3.0133 H   0  0  0  0  0  0  0  0  0  0  0  0
    3.2661   26.2315    2.3643 H   0  0  0  0  0  0  0  0  0  0  0  0
    1.2347   23.5757    2.6305 H   0  0  0  0  0  0  0  0  0  0  0  0
    2.4207   25.1273    1.8021 H   0  0  0  0  0  0  0  0  0  0  0  0
    1.7276   24.2210    3.9888 H   0  0  0  0  0  0  0  0  0  0  0  0
    1.9513   24.6785    4.7785 H   0  0  0  0  0  0  0  0  0  0  0  0
    3.1187   25.8985    5.5736 H   0  0  0  0  0  0  0  0  0  0  0  0
    3.0824   25.9992    7.0985 H   0  0  0  0  0  0  0  0  0  0  0  0
    2.7386   25.5544    8.4891 H   0  0  0  0  0  0  0  0  0  0  0  0
    1.3048   23.6733    7.7898 H   0  0  0  0  0  0  0  0  0  0  0  0
    0.1719   23.6377    8.8604 H   0  0  0  0  0  0  0  0  0  0  0  0
    2.9344   24.3671    9.7747 H   0  0  0  0  0  0  0  0  0  0  0  0
    0.3627   22.4543   10.1460 H   0  0  0  0  0  0  0  0  0  0  0  0
    2.0940   24.7049   11.0967 H   0  0  0  0  0  0  0  0  0  0  0  0
    0.0251   22.0047   11.5366 H   0  0  0  0  0  0  0  0  0  0  0  0
    0.1829   22.2192   14.8802 H   0  0  0  0  0  0  0  0  0  0  0  0
    1.3486   23.7859   14.0517 H   0  0  0  0  0  0  0  0  0  0  0  0
   -0.3333   21.4981   13.1011 H   0  0  0  0  0  0  0  0  0  0  0  0
    2.5538   25.3230   13.2232 H   0  0  0  0  0  0  0  0  0  0  0  0
    1.4751   23.9082   14.1098 H   0  0  0  0  0  0  0  0  0  0  0  0
    2.1522   24.7953   11.3493 H   0  0  0  0  0  0  0  0  0  0  0  0
    1.3646   23.7459    4.4750 H   0  0  0  0  0  0  0  0  0  0  0  0
    0.3590   22.4311    4.4359 H   0  0  0  0  0  0  0  0  0  0  0  0
   -0.3839   21.4654    6.3845 H   0  0  0  0  0  0  0  0  0  0  0  0
    0.1898   22.2206    8.1691 H   0  0  0  0  0  0  0  0  0  0  0  0
    1.4170   23.8259    8.4897 H   0  0  0  0  0  0  0  0  0  0  0  0
  1  2  3  0
  2  3  1  0
  3  4  1  0
  4  5  1  0
  5  6  1  0
  6  7  1  0
  7  8  1  0
  8  9  1  0
  8 10  1  0
 10 11  1  0
 11 12  1  0
 12 13  1  0
 13 14  1  0
 14 15  1  0
 15 16  1  0
 15 17  1  0
 11 18  1  0
 18 19  1  0
 19 20  1  0
  6  4  1  0
 20 18  1  0
  1 21  1  0
  3 22  1  0
  3 23  1  0
  4 24  1  0
  5 25  1  0
  5 26  1  0
  6 27  1  0
  7 28  1  0
  7 29  1  0
  8 30  1  0
  9 31  1  0
  9 32  1  0
  9 33  1  0
 10 34  1  0
 10 35  1  0
 11 36  1  0
 12 37  1  0
 12 38  1  0
 13 39  1  0
 13 40  1  0
 14 41  1  0
 14 42  1  0
 15 43  1  0
 16 44  1  0
 16 45  1  0
 16 46  1  0
 17 47  1  0
 17 48  1  0
 17 49  1  0
 18 50  1  0
 19 51  1  0
 19 52  1  0
 20 53  1  0
 20 54  1  0
M  END
