
     RDKit          2D

 17 17  0  0  0  0  0  0  0  0999 V2000
   -0.4922   25.6953    4.0580 O   0  0  0  0  0  0  0  0  0  0  0  0
   -0.1643   24.8483    5.2518 O   0  0  0  0  0  0  0  0  0  0  0  0
    1.2629   24.4998    5.5549 P   0  0  0  0  0  0  0  0  0  0  0  0
    1.5908   23.6528    6.7486 I   0  0  0  0  0  0  0  0  0  0  0  0
    2.3621   24.9984    4.6642 O   0  0  0  0  0  0  0  0  0  0  0  0
    3.7892   24.6499    4.9673 P   0  0  0  0  0  0  0  0  0  0  0  0
    4.1171   23.8029    6.1610 O   0  0  0  0  0  0  0  0  0  0  0  0
    4.8884   25.1485    4.0766 C   0  0  0  0  0  0  0  0  0  0  0  0
    6.0771   24.5554    4.7730 C   0  0  0  0  0  0  0  0  0  0  0  0
    6.2678   25.3809    3.5352 C   0  0  0  0  0  0  0  0  0  0  0  0
   -1.9193   26.0437    3.7549 H   0  0  0  0  0  0  0  0  0  0  0  0
    3.0180   23.3044    7.0517 H   0  0  0  0  0  0  0  0  0  0  0  0
    4.0813   25.9148    3.0708 H   0  0  0  0  0  0  0  0  0  0  0  0
    7.5042   24.2069    5.0761 H   0  0  0  0  0  0  0  0  0  0  0  0
    5.3909   23.8508    5.9055 H   0  0  0  0  0  0  0  0  0  0  0  0
    5.9398   26.2279    2.3415 H   0  0  0  0  0  0  0  0  0  0  0  0
    7.7611   25.3192    3.4084 H   0  0  0  0  0  0  0  0  0  0  0  0
  1  2  1  0
  2  3  1  0
  3  4  1  0
  3  5  1  0
  5  6  1  0
  6  7  1  0
  6  8  1  0
  8  9  1  0
  9 10  1  0
 10  8  1  0
  1 11  1  0
  7 12  1  0
  8 13  1  0
  9 14  1  0
  9 15  1  0
 10 16  1  0
 10 17  1  0
M  END
