
     RDKit          2D

 27 28  0  0  0  0  0  0  0  0999 V2000
    2.6199   24.3968    4.6740 C   0  0  0  0  0  0  0  0  0  0  0  0
    2.0046   23.0733    4.3279 C   0  0  0  0  0  0  0  0  0  0  0  0
    1.0623   22.9140    5.4840 C   0  0  0  0  0  0  0  0  0  0  0  0
    0.1199   22.7546    6.6401 C   0  0  0  0  0  0  0  0  0  0  0  0
    0.5789   24.0703    7.1956 C   0  0  0  0  0  0  0  0  0  0  0  0
   -0.3635   23.9109    8.3517 C   0  0  0  0  0  0  0  0  0  0  0  0
   -1.3059   23.7515    9.5078 N   0  0  0  0  0  0  0  0  0  0  0  0
   -0.8225   22.5953    7.7962 C   0  0  0  0  0  0  0  0  0  0  0  0
    2.7332   22.7731    3.0517 C   0  0  0  0  0  0  0  0  0  0  0  0
    1.7166   21.8053    3.5803 C   0  0  0  0  0  0  0  0  0  0  0  0
    3.2353   25.7203    5.0200 H   0  0  0  0  0  0  0  0  0  0  0  0
    3.0703   24.3592    4.0173 H   0  0  0  0  0  0  0  0  0  0  0  0
    3.1360   24.5305    4.0813 H   0  0  0  0  0  0  0  0  0  0  0  0
    1.6326   24.2392    5.8944 H   0  0  0  0  0  0  0  0  0  0  0  0
    0.4918   21.5887    5.0736 H   0  0  0  0  0  0  0  0  0  0  0  0
   -0.3391   21.4390    6.0847 H   0  0  0  0  0  0  0  0  0  0  0  0
    1.0378   25.3859    7.7511 H   0  0  0  0  0  0  0  0  0  0  0  0
    1.5701   24.3888    6.1158 H   0  0  0  0  0  0  0  0  0  0  0  0
    0.0955   25.2265    8.9071 H   0  0  0  0  0  0  0  0  0  0  0  0
   -1.3818   24.8126   10.5653 H   0  0  0  0  0  0  0  0  0  0  0  0
   -2.2376   22.6036    9.7614 H   0  0  0  0  0  0  0  0  0  0  0  0
   -1.2814   21.2797    7.2407 H   0  0  0  0  0  0  0  0  0  0  0  0
   -1.8138   22.2768    8.8760 H   0  0  0  0  0  0  0  0  0  0  0  0
    3.7178   23.8303    2.6479 H   0  0  0  0  0  0  0  0  0  0  0  0
    3.1603   22.0494    1.8091 H   0  0  0  0  0  0  0  0  0  0  0  0
    1.7905   20.7454    2.5215 H   0  0  0  0  0  0  0  0  0  0  0  0
    0.6687   21.0659    4.3583 H   0  0  0  0  0  0  0  0  0  0  0  0
  1  2  1  0
  2  3  1  0
  3  4  1  0
  4  5  1  0
  5  6  1  0
  6  7  1  0
  6  8  1  0
  2  9  1  0
  9 10  1  0
 10  2  1  0
  8  4  1  0
  1 11  1  0
  1 12  1  0
  1 13  1  0
  3 14  1  0
  3 15  1  0
  4 16  1  0
  5 17  1  0
  5 18  1  0
  6 19  1  0
  7 20  1  0
  7 21  1  0
  8 22  1  0
  8 23  1  0
  9 24  1  0
  9 25  1  0
 10 26  1  0
 10 27  1  0
M  END
