
     RDKit          2D

 67 71  0  0  0  0  0  0  0  0999 V2000
   21.5966  -18.4430  -10.9869 O   0  0  0  0  0  0  0  0  0  0  0  0
   20.1431  -18.7735  -10.8183 C   0  0  0  0  0  0  0  0  0  0  0  0
   18.6897  -19.1040  -10.6496 C   0  0  0  0  0  0  0  0  0  0  0  0
   18.6640  -18.3338   -9.3628 As  0  0  0  0  0  3  0  0  0  0  0  0
   17.2364  -19.4345  -10.4810 C   0  0  0  0  0  0  0  0  0  0  0  0
   15.7830  -19.7649  -10.3123 C   0  0  0  0  0  0  0  0  0  0  0  0
   15.2854  -20.5169  -11.5110 C   0  0  0  0  0  0  0  0  0  0  0  0
   14.0264  -21.1430  -12.0335 C   0  0  0  0  0  0  0  0  0  0  0  0
   12.5952  -21.3504  -11.6352 C   0  0  0  0  0  0  0  0  0  0  0  0
   11.6614  -21.0420  -10.5025 C   0  0  0  0  0  0  0  0  0  0  0  0
   11.6620  -20.3620   -9.1655 O   0  0  0  0  0  0  0  0  0  0  0  0
   12.5966  -19.6287   -8.2497 C   0  0  0  0  0  0  0  0  0  0  0  0
   13.0942  -18.8768   -7.0510 C   0  0  0  0  0  0  0  0  0  0  0  0
   14.5257  -18.4333   -6.9849 C   0  0  0  0  0  0  0  0  0  0  0  0
   14.5261  -17.7534   -5.6479 C   0  0  0  0  0  0  0  0  0  0  0  0
   15.9796  -17.4230   -5.8165 F   0  0  0  0  0  0  0  0  0  0  0  0
   14.5268  -17.0734   -4.3109 C   0  0  0  0  0  0  0  0  0  0  0  0
   14.5273  -16.3935   -2.9738 C   0  0  0  0  0  0  0  0  0  0  0  0
   14.5279  -15.7135   -1.6367 C   0  0  0  0  0  0  0  0  0  0  0  0
   14.5285  -15.0336   -0.2997 C   0  0  0  0  0  0  0  0  0  0  0  0
   14.0320  -14.5076    1.0144 C   0  0  0  0  0  0  0  0  0  0  0  0
   13.0973  -15.2409    0.0986 C   0  0  0  0  0  0  0  0  0  0  0  0
   14.0280  -19.1853   -8.1836 C   0  0  0  0  0  0  0  0  0  0  0  0
   15.2864  -19.2390   -8.9982 C   0  0  0  0  0  0  0  0  0  0  0  0
   18.7156  -19.8742  -11.9365 C   0  0  0  0  0  0  0  0  0  0  0  0
   18.7414  -20.6444  -13.2234 C   0  0  0  0  0  0  0  0  0  0  0  0
   20.0754  -20.0443  -13.5558 C   0  0  0  0  0  0  0  0  0  0  0  0
   20.1012  -20.8146  -14.8428 C   0  0  0  0  0  0  0  0  0  0  0  0
   18.7672  -21.4147  -14.5103 O   0  0  0  0  0  0  0  0  0  0  0  0
   22.3376  -18.9177  -12.2017 H   0  0  0  0  0  0  0  0  0  0  0  0
   20.3542  -18.1776   -9.4580 H   0  0  0  0  0  0  0  0  0  0  0  0
   20.2278  -19.0778  -11.6457 H   0  0  0  0  0  0  0  0  0  0  0  0
   18.3536  -16.8766   -9.1888 H   0  0  0  0  0  0  0  0  0  0  0  0
   18.9434  -18.8640   -7.9876 H   0  0  0  0  0  0  0  0  0  0  0  0
   17.2316  -19.0155   -9.7006 H   0  0  0  0  0  0  0  0  0  0  0  0
   17.0671  -20.1790  -11.7721 H   0  0  0  0  0  0  0  0  0  0  0  0
   16.3983  -20.7008  -12.4997 H   0  0  0  0  0  0  0  0  0  0  0  0
   15.0832  -21.3693  -13.0737 H   0  0  0  0  0  0  0  0  0  0  0  0
   13.5368  -21.8946  -13.2358 H   0  0  0  0  0  0  0  0  0  0  0  0
   12.5862  -22.0323  -12.9713 H   0  0  0  0  0  0  0  0  0  0  0  0
   11.3405  -21.9790  -12.1649 H   0  0  0  0  0  0  0  0  0  0  0  0
   10.7203  -21.7742  -11.4126 H   0  0  0  0  0  0  0  0  0  0  0  0
   10.2692  -21.1636   -9.9575 H   0  0  0  0  0  0  0  0  0  0  0  0
   11.3382  -19.5750   -7.4352 H   0  0  0  0  0  0  0  0  0  0  0  0
   12.1604  -18.5684   -5.9183 H   0  0  0  0  0  0  0  0  0  0  0  0
   15.7013  -18.1948   -7.1780 H   0  0  0  0  0  0  0  0  0  0  0  0
   13.0728  -18.0837   -5.4793 H   0  0  0  0  0  0  0  0  0  0  0  0
   13.0739  -17.4059   -4.1412 H   0  0  0  0  0  0  0  0  0  0  0  0
   15.9796  -16.7409   -4.4805 H   0  0  0  0  0  0  0  0  0  0  0  0
   15.8783  -15.8126   -3.2697 H   0  0  0  0  0  0  0  0  0  0  0  0
   13.1764  -16.9744   -2.6778 H   0  0  0  0  0  0  0  0  0  0  0  0
   13.0759  -16.0489   -1.4657 H   0  0  0  0  0  0  0  0  0  0  0  0
   15.8248  -15.4886   -1.9363 H   0  0  0  0  0  0  0  0  0  0  0  0
   15.9599  -14.5901   -0.2337 H   0  0  0  0  0  0  0  0  0  0  0  0
   15.2911  -13.8815    1.5368 H   0  0  0  0  0  0  0  0  0  0  0  0
   13.0983  -14.1991    2.1471 H   0  0  0  0  0  0  0  0  0  0  0  0
   11.8390  -15.1870    0.9133 H   0  0  0  0  0  0  0  0  0  0  0  0
   12.5029  -15.9212   -0.9046 H   0  0  0  0  0  0  0  0  0  0  0  0
   15.6959  -18.6296   -8.0302 H   0  0  0  0  0  0  0  0  0  0  0  0
   16.4103  -18.8194   -8.8059 H   0  0  0  0  0  0  0  0  0  0  0  0
   19.5702  -19.7390  -12.1261 H   0  0  0  0  0  0  0  0  0  0  0  0
   17.6910  -20.2402  -12.0464 H   0  0  0  0  0  0  0  0  0  0  0  0
   17.4075  -21.2446  -12.8910 H   0  0  0  0  0  0  0  0  0  0  0  0
   21.4093  -19.4442  -13.8882 H   0  0  0  0  0  0  0  0  0  0  0  0
   20.3571  -20.5320  -14.6324 H   0  0  0  0  0  0  0  0  0  0  0  0
   20.1270  -21.5847  -16.1296 H   0  0  0  0  0  0  0  0  0  0  0  0
   21.4351  -20.2144  -15.1751 H   0  0  0  0  0  0  0  0  0  0  0  0
  1  2  1  0
  2  3  1  0
  3  4  1  0
  3  5  1  0
  5  6  1  0
  6  7  2  0
  7  8  1  0
  8  9  1  0
  9 10  1  0
 10 11  1  0
 11 12  1  0
 12 13  1  0
 13 14  1  0
 14 15  1  0
 15 16  1  0
 15 17  1  0
 17 18  1  0
 18 19  1  0
 19 20  1  0
 20 21  1  0
 21 22  1  0
 14 23  1  0
 23 24  1  0
  3 25  1  0
 25 26  1  0
 26 27  1  0
 27 28  1  0
 28 29  1  0
 24  6  1  0
 29 26  1  0
 23 12  1  0
 23 13  1  0
 22 20  1  0
  1 30  1  0
  2 31  1  0
  2 32  1  0
  4 33  1  0
  4 34  1  0
  5 35  1  0
  5 36  1  0
  7 37  1  0
  8 38  1  0
  8 39  1  0
  9 40  1  0
  9 41  1  0
 10 42  1  0
 10 43  1  0
 12 44  1  0
 13 45  1  0
 14 46  1  0
 15 47  1  0
 17 48  1  0
 17 49  1  0
 18 50  1  0
 18 51  1  0
 19 52  1  0
 19 53  1  0
 20 54  1  0
 21 55  1  0
 21 56  1  0
 22 57  1  0
 22 58  1  0
 24 59  1  0
 24 60  1  0
 25 61  1  0
 25 62  1  0
 26 63  1  0
 27 64  1  0
 27 65  1  0
 28 66  1  0
 28 67  1  0
M  END
