
     RDKit          2D

 71 79  0  0  0  0  0  0  0  0999 V2000
    4.3841   24.3198    7.7771 C   0  0  0  0  0  0  0  0  0  0  0  0
    3.3746   25.3112    7.2792 C   0  0  0  0  0  0  0  0  0  0  0  0
    2.3651   26.3027    6.7813 C   0  0  0  0  0  0  0  0  0  0  0  0
    1.1771   25.9002    7.6038 C   0  0  0  0  0  0  0  0  0  0  0  0
    1.0648   27.0348    6.6291 N   0  0  0  0  0  0  0  0  0  0  0  0
   -0.3719   27.2251    7.0161 C   0  0  0  0  0  0  0  0  0  0  0  0
   -1.3072   28.2549    6.4550 C   0  0  0  0  0  0  0  0  0  0  0  0
   -2.7082   28.7865    6.5218 N   0  0  0  0  0  0  0  0  0  0  0  0
   -4.0399   28.6168    7.1911 C   0  0  0  0  0  0  0  0  0  0  0  0
   -4.7935   27.8107    8.2070 C   0  0  0  0  0  0  0  0  0  0  0  0
   -4.6813   26.6760    9.1817 N   0  0  0  0  0  0  0  0  0  0  0  0
   -3.7461   25.6463    9.7427 C   0  0  0  0  0  0  0  0  0  0  0  0
   -3.6338   24.5116   10.7174 O   0  0  0  0  0  0  0  0  0  0  0  0
   -2.3450   25.1146    9.6759 C   0  0  0  0  0  0  0  0  0  0  0  0
   -3.4413   24.6017   10.5618 C   0  0  0  0  0  0  0  0  0  0  0  0
   -4.6695   25.4225   10.3021 C   0  0  0  0  0  0  0  0  0  0  0  0
   -5.2907   24.5350   11.3396 C   0  0  0  0  0  0  0  0  0  0  0  0
   -6.6506   24.8348   10.7820 C   0  0  0  0  0  0  0  0  0  0  0  0
   -7.2717   23.9474   11.8195 N   0  0  0  0  0  0  0  0  0  0  0  0
   -5.9118   23.6475   12.3771 C   0  0  0  0  0  0  0  0  0  0  0  0
   -5.2907   24.5350   11.3396 C   0  0  0  0  0  0  0  0  0  0  0  0
   -4.6695   25.4225   10.3021 C   0  0  0  0  0  0  0  0  0  0  0  0
   -4.0484   26.3100    9.2645 C   0  0  0  0  0  0  0  0  0  0  0  0
   -5.0931   27.2806    8.7991 C   0  0  0  0  0  0  0  0  0  0  0  0
   -4.4720   28.1681    7.7616 C   0  0  0  0  0  0  0  0  0  0  0  0
   -2.9726   27.8473    7.4674 C   0  0  0  0  0  0  0  0  0  0  0  0
   -2.8604   26.7126    8.4420 C   0  0  0  0  0  0  0  0  0  0  0  0
   -4.1607   27.4447    8.2898 C   0  0  0  0  0  0  0  0  0  0  0  0
   -1.0133   25.2844    9.0067 C   0  0  0  0  0  0  0  0  0  0  0  0
   -0.2596   26.0905    7.9907 C   0  0  0  0  0  0  0  0  0  0  0  0
   -1.6962   26.4559    8.2204 C   0  0  0  0  0  0  0  0  0  0  0  0
    5.3936   23.3282    8.2750 H   0  0  0  0  0  0  0  0  0  0  0  0
    5.4115   24.9010    6.8516 H   0  0  0  0  0  0  0  0  0  0  0  0
    3.3566   23.7384    8.7026 H   0  0  0  0  0  0  0  0  0  0  0  0
    2.4760   24.6092    8.2538 H   0  0  0  0  0  0  0  0  0  0  0  0
    4.4039   25.8968    6.3585 H   0  0  0  0  0  0  0  0  0  0  0  0
    3.2026   27.0497    5.7859 H   0  0  0  0  0  0  0  0  0  0  0  0
    1.4881   24.7501    8.5151 H   0  0  0  0  0  0  0  0  0  0  0  0
    0.3385   28.0593    5.9917 H   0  0  0  0  0  0  0  0  0  0  0  0
   -1.4194   29.3895    5.4804 H   0  0  0  0  0  0  0  0  0  0  0  0
   -0.0525   28.5620    5.6924 H   0  0  0  0  0  0  0  0  0  0  0  0
   -2.8205   29.9212    5.5472 H   0  0  0  0  0  0  0  0  0  0  0  0
   -5.3177   29.3795    7.0027 H   0  0  0  0  0  0  0  0  0  0  0  0
   -3.9762   29.7198    6.1765 H   0  0  0  0  0  0  0  0  0  0  0  0
   -6.1824   27.7810    8.7729 H   0  0  0  0  0  0  0  0  0  0  0  0
   -6.0596   28.5882    8.0008 H   0  0  0  0  0  0  0  0  0  0  0  0
   -5.0777   25.4765   10.4120 H   0  0  0  0  0  0  0  0  0  0  0  0
   -4.2998   23.6501   11.7491 H   0  0  0  0  0  0  0  0  0  0  0  0
   -2.0584   23.9653   10.5961 H   0  0  0  0  0  0  0  0  0  0  0  0
   -2.5253   23.5631   11.1383 H   0  0  0  0  0  0  0  0  0  0  0  0
   -4.0165   23.6891   11.6041 H   0  0  0  0  0  0  0  0  0  0  0  0
   -6.1040   25.8069   10.5140 H   0  0  0  0  0  0  0  0  0  0  0  0
   -6.4599   25.0407   10.5475 H   0  0  0  0  0  0  0  0  0  0  0  0
   -7.1729   25.6744    9.6540 H   0  0  0  0  0  0  0  0  0  0  0  0
   -8.6725   23.5318   12.1590 H   0  0  0  0  0  0  0  0  0  0  0  0
   -5.3895   22.8080   13.5051 H   0  0  0  0  0  0  0  0  0  0  0  0
   -4.1216   24.0294   12.1317 H   0  0  0  0  0  0  0  0  0  0  0  0
   -5.9737   26.1458   10.1401 H   0  0  0  0  0  0  0  0  0  0  0  0
   -3.3655   24.6992   10.4640 H   0  0  0  0  0  0  0  0  0  0  0  0
   -6.2215   26.8039    9.6649 H   0  0  0  0  0  0  0  0  0  0  0  0
   -6.4042   27.9971    8.6651 H   0  0  0  0  0  0  0  0  0  0  0  0
   -5.7613   28.9156    7.5913 H   0  0  0  0  0  0  0  0  0  0  0  0
   -3.9666   29.1160    6.7147 H   0  0  0  0  0  0  0  0  0  0  0  0
   -2.0553   28.5312    6.4975 H   0  0  0  0  0  0  0  0  0  0  0  0
   -1.7490   25.7874    8.8407 H   0  0  0  0  0  0  0  0  0  0  0  0
   -5.2721   28.3698    7.8912 H   0  0  0  0  0  0  0  0  0  0  0  0
    0.3878   24.7527    8.9399 H   0  0  0  0  0  0  0  0  0  0  0  0
   -0.9010   24.1497    9.9813 H   0  0  0  0  0  0  0  0  0  0  0  0
   -3.0625   27.0744    8.1958 H   0  0  0  0  0  0  0  0  0  0  0  0
   -1.5823   27.5468    7.1973 H   0  0  0  0  0  0  0  0  0  0  0  0
   -2.1543   25.4858    9.2689 H   0  0  0  0  0  0  0  0  0  0  0  0
  1  2  1  0
  2  3  1  0
  3  4  1  0
  4  5  1  0
  5  6  1  0
  6  7  1  0
  7  8  1  0
  8  9  1  0
  9 10  1  0
 10 11  1  0
 11 12  1  0
 12 13  1  0
 12 14  1  0
 14 15  1  0
 15 16  1  0
 16 17  1  0
 17 18  1  0
 18 19  1  0
 19 20  1  0
 20 21  1  0
 21 22  1  0
 22 23  1  0
 23 24  1  0
 24 25  1  0
 25 26  1  0
 26 27  1  0
 27 28  1  0
 14 29  1  0
 29 30  1  0
 30 31  1  0
  5  3  1  0
 30  6  1  0
 30  4  1  0
 16 11  1  0
 20 17  1  0
 27 23  1  0
 21 18  1  0
 28 23  1  0
 28 26  1  0
  1 32  1  0
  1 33  1  0
  1 34  1  0
  2 35  1  0
  2 36  1  0
  3 37  1  0
  4 38  1  0
  6 39  1  0
  7 40  1  0
  7 41  1  0
  8 42  1  0
  9 43  1  0
  9 44  1  0
 10 45  1  0
 10 46  1  0
 12 47  1  0
 13 48  1  0
 14 49  1  0
 15 50  1  0
 15 51  1  0
 16 52  1  0
 17 53  1  0
 18 54  1  0
 19 55  1  0
 20 56  1  0
 21 57  1  0
 22 58  1  0
 22 59  1  0
 24 60  1  0
 24 61  1  0
 25 62  1  0
 25 63  1  0
 26 64  1  0
 27 65  1  0
 28 66  1  0
 29 67  1  0
 29 68  1  0
 31 69  1  0
 31 70  1  0
 31 71  1  0
M  END
