
     RDKit          2D

104117  0  0  0  0  0  0  0  0999 V2000
   19.0612  -22.6629  -15.1018 C   0  0  0  0  0  0  0  0  0  0  0  0
   19.3867  -22.2008  -13.7124 C   0  0  0  0  0  0  0  0  0  0  0  0
   20.6271  -21.7249  -13.0161 C   0  0  0  0  0  0  0  0  0  0  0  0
   21.4746  -21.2172  -11.8874 C   0  0  0  0  0  0  0  0  0  0  0  0
   21.8000  -20.7551  -10.4981 C   0  0  0  0  0  0  0  0  0  0  0  0
   21.5539  -20.4087   -9.0595 C   0  0  0  0  0  0  0  0  0  0  0  0
   22.2381  -19.9077   -7.8221 C   0  0  0  0  0  0  0  0  0  0  0  0
   22.9870  -20.3454   -9.9954 C   0  0  0  0  0  0  0  0  0  0  0  0
   23.1128  -20.7213  -11.4420 C   0  0  0  0  0  0  0  0  0  0  0  0
   22.6702  -21.1993  -12.7931 C   0  0  0  0  0  0  0  0  0  0  0  0
   21.8227  -21.7070  -13.9219 C   0  0  0  0  0  0  0  0  0  0  0  0
   21.1492  -22.2073  -15.1653 C   0  0  0  0  0  0  0  0  0  0  0  0
   17.9420  -22.5724  -13.8701 C   0  0  0  0  0  0  0  0  0  0  0  0
   16.5131  -22.7832  -13.4653 C   0  0  0  0  0  0  0  0  0  0  0  0
   17.0872  -22.9747  -14.6159 C   0  0  0  0  0  0  0  0  0  0  0  0
   17.0145  -23.2044  -15.3787 C   0  0  0  0  0  0  0  0  0  0  0  0
   16.3043  -23.4436  -15.6585 C   0  0  0  0  0  0  0  0  0  0  0  0
   15.0453  -23.6625  -15.4203 C   0  0  0  0  0  0  0  0  0  0  0  0
   14.0465  -23.5770  -14.3045 C   0  0  0  0  0  0  0  0  0  0  0  0
   14.5373  -22.6233  -11.2909 C   0  0  0  0  0  0  0  0  0  0  0  0
   14.2911  -22.2770   -9.8523 C   0  0  0  0  0  0  0  0  0  0  0  0
   12.8262  -22.5740   -9.7264 C   0  0  0  0  0  0  0  0  0  0  0  0
   14.6166  -21.8148   -8.4630 C   0  0  0  0  0  0  0  0  0  0  0  0
   15.4641  -21.3071   -7.3341 C   0  0  0  0  0  0  0  0  0  0  0  0
   14.3264  -21.2918   -6.3566 C   0  0  0  0  0  0  0  0  0  0  0  0
   14.0489  -20.9537   -4.9218 C   0  0  0  0  0  0  0  0  0  0  0  0
   14.7612  -20.4510   -3.7012 C   0  0  0  0  0  0  0  0  0  0  0  0
   16.1300  -20.0189   -3.2658 C   0  0  0  0  0  0  0  0  0  0  0  0
   17.5150  -19.8597   -3.8195 C   0  0  0  0  0  0  0  0  0  0  0  0
   18.9802  -19.5451   -3.8825 C   0  0  0  0  0  0  0  0  0  0  0  0
   18.2680  -20.0478   -5.1031 C   0  0  0  0  0  0  0  0  0  0  0  0
   18.0367  -20.4952   -6.5161 C   0  0  0  0  0  0  0  0  0  0  0  0
   19.5781  -20.2488   -6.8850 C   0  0  0  0  0  0  0  0  0  0  0  0
   20.7737  -20.2310   -7.7907 C   0  0  0  0  0  0  0  0  0  0  0  0
   16.9293  -20.9925   -7.3971 C   0  0  0  0  0  0  0  0  0  0  0  0
   18.1665  -20.9488   -8.2442 C   0  0  0  0  0  0  0  0  0  0  0  0
   17.3815  -21.4575   -9.4169 C   0  0  0  0  0  0  0  0  0  0  0  0
   18.6186  -21.4138  -10.2640 C   0  0  0  0  0  0  0  0  0  0  0  0
   20.0826  -21.1216  -10.4112 C   0  0  0  0  0  0  0  0  0  0  0  0
   20.2765  -21.4832  -11.8540 O   0  0  0  0  0  0  0  0  0  0  0  0
   19.4036  -20.9051   -9.0913 C   0  0  0  0  0  0  0  0  0  0  0  0
   15.0713  -22.4548  -11.1210 C   0  0  0  0  0  0  0  0  0  0  0  0
   15.3176  -22.8011  -12.5596 C   0  0  0  0  0  0  0  0  0  0  0  0
   15.1814  -23.2318  -13.9900 C   0  0  0  0  0  0  0  0  0  0  0  0
   18.9123  -23.0960  -16.5302 H   0  0  0  0  0  0  0  0  0  0  0  0
   20.2784  -22.6318  -15.9777 H   0  0  0  0  0  0  0  0  0  0  0  0
   17.5961  -22.9793  -15.0452 H   0  0  0  0  0  0  0  0  0  0  0  0
   20.7518  -22.0605  -14.3180 H   0  0  0  0  0  0  0  0  0  0  0  0
   19.2263  -21.9009  -12.5095 H   0  0  0  0  0  0  0  0  0  0  0  0
   21.0810  -21.6890  -13.2558 H   0  0  0  0  0  0  0  0  0  0  0  0
   23.1651  -20.6149  -11.1037 H   0  0  0  0  0  0  0  0  0  0  0  0
   23.1924  -20.3363  -10.1295 H   0  0  0  0  0  0  0  0  0  0  0  0
   20.2650  -20.8719   -9.6712 H   0  0  0  0  0  0  0  0  0  0  0  0
   23.4786  -19.4318   -7.1260 H   0  0  0  0  0  0  0  0  0  0  0  0
   24.4276  -20.1166  -10.3451 H   0  0  0  0  0  0  0  0  0  0  0  0
   23.9305  -19.8380   -8.9454 H   0  0  0  0  0  0  0  0  0  0  0  0
   24.3407  -20.6834  -12.3026 H   0  0  0  0  0  0  0  0  0  0  0  0
   24.4861  -20.2916  -11.0186 H   0  0  0  0  0  0  0  0  0  0  0  0
   24.1341  -20.8727  -12.8120 H   0  0  0  0  0  0  0  0  0  0  0  0
   22.3140  -22.2074  -16.1104 H   0  0  0  0  0  0  0  0  0  0  0  0
   20.2002  -22.7146  -16.2103 H   0  0  0  0  0  0  0  0  0  0  0  0
   18.9863  -22.6945  -15.1538 H   0  0  0  0  0  0  0  0  0  0  0  0
   18.3356  -22.2685  -13.1021 H   0  0  0  0  0  0  0  0  0  0  0  0
   17.9436  -23.5086  -17.2207 H   0  0  0  0  0  0  0  0  0  0  0  0
   18.9789  -23.0139  -16.2903 H   0  0  0  0  0  0  0  0  0  0  0  0
   15.1986  -24.1477  -17.2804 H   0  0  0  0  0  0  0  0  0  0  0  0
   17.0744  -23.8014  -17.5631 H   0  0  0  0  0  0  0  0  0  0  0  0
   13.7980  -24.1368  -16.1055 H   0  0  0  0  0  0  0  0  0  0  0  0
   12.9567  -24.0762  -15.2063 H   0  0  0  0  0  0  0  0  0  0  0  0
   12.8466  -23.5975  -13.4046 H   0  0  0  0  0  0  0  0  0  0  0  0
   13.2424  -23.0848  -11.8913 H   0  0  0  0  0  0  0  0  0  0  0  0
   11.3613  -22.8709   -9.6004 H   0  0  0  0  0  0  0  0  0  0  0  0
   12.6881  -22.2020   -8.2798 H   0  0  0  0  0  0  0  0  0  0  0  0
   12.6074  -23.0183  -11.1423 H   0  0  0  0  0  0  0  0  0  0  0  0
   13.6909  -21.6964   -7.2886 H   0  0  0  0  0  0  0  0  0  0  0  0
   13.1527  -22.1415   -8.4441 H   0  0  0  0  0  0  0  0  0  0  0  0
   15.3343  -21.7367   -8.7655 H   0  0  0  0  0  0  0  0  0  0  0  0
   13.6067  -21.7949   -7.5727 H   0  0  0  0  0  0  0  0  0  0  0  0
   12.8613  -21.6088   -6.3021 H   0  0  0  0  0  0  0  0  0  0  0  0
   12.6770  -21.3842   -5.3491 H   0  0  0  0  0  0  0  0  0  0  0  0
   12.9059  -20.9413   -3.9505 H   0  0  0  0  0  0  0  0  0  0  0  0
   13.3790  -20.6074   -3.1398 H   0  0  0  0  0  0  0  0  0  0  0  0
   14.4751  -20.1150   -2.2675 H   0  0  0  0  0  0  0  0  0  0  0  0
   15.3844  -19.8281   -1.9784 H   0  0  0  0  0  0  0  0  0  0  0  0
   16.8348  -19.5167   -2.0408 H   0  0  0  0  0  0  0  0  0  0  0  0
   17.9209  -19.3863   -2.4553 H   0  0  0  0  0  0  0  0  0  0  0  0
   19.2115  -19.0976   -2.4695 H   0  0  0  0  0  0  0  0  0  0  0  0
   20.3652  -19.3858   -4.4362 H   0  0  0  0  0  0  0  0  0  0  0  0
   19.7010  -19.8309   -5.4897 H   0  0  0  0  0  0  0  0  0  0  0  0
   19.4877  -20.2468   -6.8043 H   0  0  0  0  0  0  0  0  0  0  0  0
   20.7142  -19.7549   -6.0394 H   0  0  0  0  0  0  0  0  0  0  0  0
   19.5099  -19.8598   -5.4380 H   0  0  0  0  0  0  0  0  0  0  0  0
   21.3600  -19.7376   -6.5012 H   0  0  0  0  0  0  0  0  0  0  0  0
   16.3626  -21.4841   -8.6960 H   0  0  0  0  0  0  0  0  0  0  0  0
   19.3427  -20.4583   -7.4531 H   0  0  0  0  0  0  0  0  0  0  0  0
   16.4516  -21.9677  -10.4776 H   0  0  0  0  0  0  0  0  0  0  0  0
   16.0579  -21.5629   -8.7190 H   0  0  0  0  0  0  0  0  0  0  0  0
   18.1806  -21.8938  -11.6159 H   0  0  0  0  0  0  0  0  0  0  0  0
   21.5448  -20.7873  -10.4073 H   0  0  0  0  0  0  0  0  0  0  0  0
   19.0154  -21.9563  -12.5143 H   0  0  0  0  0  0  0  0  0  0  0  0
   20.6900  -20.4391   -8.4765 H   0  0  0  0  0  0  0  0  0  0  0  0
   16.5003  -22.2440  -11.5258 H   0  0  0  0  0  0  0  0  0  0  0  0
   15.7668  -21.9531   -9.8904 H   0  0  0  0  0  0  0  0  0  0  0  0
   13.7985  -23.3889  -13.4304 H   0  0  0  0  0  0  0  0  0  0  0  0
  1  2  1  0
  2  3  1  0
  3  4  1  0
  4  5  1  0
  5  6  1  0
  6  7  1  0
  7  8  1  0
  8  9  1  0
  9 10  1  0
 10 11  1  0
 11 12  1  0
 12 13  1  0
 13 14  1  0
 14 15  1  0
 15 16  1  0
 16 17  1  0
 17 18  1  0
 18 19  1  0
 19 20  1  0
 20 21  1  0
 21 22  1  0
 21 23  1  0
 23 24  1  0
 24 25  1  0
 25 26  1  0
 26 27  1  0
 27 28  1  0
 28 29  1  0
 29 30  1  0
 30 31  1  0
 31 32  1  0
 32 33  1  0
 33 34  1  0
 32 35  1  0
 35 36  1  0
 36 37  1  0
 37 38  1  0
 38 39  1  0
 39 40  1  0
 39 41  1  0
 21 42  1  0
 42 43  1  0
 43 44  1  0
 13  2  1  0
 43 14  1  0
 11  3  1  0
 44 14  1  0
 10  4  1  0
 13 11  1  0
 44 18  1  0
 34  6  1  0
 41 36  1  0
 34  7  1  0
 41 38  1  0
 43 20  1  0
 35 24  1  0
 31 29  1  0
  1 45  1  0
  1 46  1  0
  1 47  1  0
  2 48  1  0
  3 49  1  0
  4 50  1  0
  5 51  1  0
  5 52  1  0
  6 53  1  0
  7 54  1  0
  8 55  1  0
  8 56  1  0
  9 57  1  0
  9 58  1  0
 10 59  1  0
 12 60  1  0
 12 61  1  0
 15 62  1  0
 15 63  1  0
 16 64  1  0
 16 65  1  0
 17 66  1  0
 17 67  1  0
 18 68  1  0
 19 69  1  0
 19 70  1  0
 20 71  1  0
 22 72  1  0
 22 73  1  0
 22 74  1  0
 23 75  1  0
 23 76  1  0
 24 77  1  0
 25 78  1  0
 25 79  1  0
 26 80  1  0
 26 81  1  0
 27 82  1  0
 27 83  1  0
 28 84  1  0
 28 85  1  0
 29 86  1  0
 30 87  1  0
 30 88  1  0
 31 89  1  0
 32 90  1  0
 33 91  1  0
 33 92  1  0
 34 93  1  0
 35 94  1  0
 36 95  1  0
 37 96  1  0
 37 97  1  0
 38 98  1  0
 39 99  1  0
 40100  1  0
 41101  1  0
 42102  1  0
 42103  1  0
 44104  1  0
M  END
