
     RDKit          2D

 99107  0  0  0  0  0  0  0  0999 V2000
    1.5018   18.7905    6.1312 C   0  0  0  0  0  0  0  0  0  0  0  0
    1.0975   20.2278    6.2757 C   0  0  0  0  0  0  0  0  0  0  0  0
    0.8416   20.8016    7.6377 C   0  0  0  0  0  0  0  0  0  0  0  0
    0.5856   21.3755    8.9998 C   0  0  0  0  0  0  0  0  0  0  0  0
    0.3296   21.9493   10.3619 C   0  0  0  0  0  0  0  0  0  0  0  0
   -0.2039   23.9727   10.0137 O   0  0  0  0  0  0  0  0  0  0  0  0
   -0.3547   24.8354    8.7960 C   0  0  0  0  0  0  0  0  0  0  0  0
   -0.2940   25.0022    7.3066 C   0  0  0  0  0  0  0  0  0  0  0  0
   -0.5090   26.0534    6.2583 S   0  0  0  0  0  3  0  0  0  0  0  0
   -0.3128   25.7187    4.8093 O   0  0  0  0  0  0  0  0  0  0  0  0
   -0.5278   26.7699    3.7610 C   0  0  0  0  0  0  0  0  0  0  0  0
   -0.7428   27.8211    2.7127 C   0  0  0  0  0  0  0  0  0  0  0  0
   -0.4348   27.0255    1.4791 C   0  0  0  0  0  0  0  0  0  0  0  0
   -1.0648   29.1486    2.0930 C   0  0  0  0  0  0  0  0  0  0  0  0
   -1.1255   28.9818    3.5825 C   0  0  0  0  0  0  0  0  0  0  0  0
   -1.0434   28.3338    4.9328 O   0  0  0  0  0  0  0  0  0  0  0  0
   -1.5366   30.3676    3.9831 C   0  0  0  0  0  0  0  0  0  0  0  0
   -1.9478   31.7533    4.3839 F   0  0  0  0  0  0  0  0  0  0  0  0
   -0.9201   27.4391    6.6590 C   0  0  0  0  0  0  0  0  0  0  0  0
   -0.9083   27.0256    8.1009 N   0  0  0  0  0  2  0  0  0  0  0  0
   -1.3195   28.4114    8.5015 C   0  0  0  0  0  0  0  0  0  0  0  0
   -1.7307   29.7972    8.9023 N   0  0  0  0  0  0  0  0  0  0  0  0
   -1.7425   30.2107    7.4604 C   0  0  0  0  0  0  0  0  0  0  0  0
   -1.3313   28.8249    7.0597 C   0  0  0  0  0  0  0  0  0  0  0  0
   -0.0380   24.4283    5.9444 C   0  0  0  0  0  0  0  0  0  0  0  0
    0.3446   23.2676    5.0748 C   0  0  0  0  0  0  0  0  0  0  0  0
    0.1384   24.2938    4.0002 C   0  0  0  0  0  0  0  0  0  0  0  0
    0.2881   24.1367    2.5161 C   0  0  0  0  0  0  0  0  0  0  0  0
   -0.1051   25.5820    2.4367 C   0  0  0  0  0  0  0  0  0  0  0  0
    0.3791   24.1956    1.0199 C   0  0  0  0  0  0  0  0  0  0  0  0
    0.6810   22.9147    1.7398 C   0  0  0  0  0  0  0  0  0  0  0  0
    1.0212   21.5481    2.2560 C   0  0  0  0  0  0  0  0  0  0  0  0
    1.1709   21.3911    0.7718 C   0  0  0  0  0  0  0  0  0  0  0  0
    1.3206   21.2340   -0.7124 C   0  0  0  0  0  0  0  0  0  0  0  0
    1.0526   21.0658    3.6760 C   0  0  0  0  0  0  0  0  0  0  0  0
    0.7515   21.8311    4.9305 C   0  0  0  0  0  0  0  0  0  0  0  0
    1.0734   20.5036    5.5503 C   0  0  0  0  0  0  0  0  0  0  0  0
    1.4802   19.0671    5.4060 C   0  0  0  0  0  0  0  0  0  0  0  0
    1.2242   19.6409    6.7681 C   0  0  0  0  0  0  0  0  0  0  0  0
    1.1635   19.4741    8.2575 C   0  0  0  0  0  0  0  0  0  0  0  0
    0.9076   20.0479    9.6196 C   0  0  0  0  0  0  0  0  0  0  0  0
    0.6516   20.6218   10.9817 O   0  0  0  0  0  0  0  0  0  0  0  0
    0.8174   21.0774    6.9123 C   0  0  0  0  0  0  0  0  0  0  0  0
    0.4955   22.4049    6.2926 C   0  0  0  0  0  0  0  0  0  0  0  0
    1.7578   18.2166    4.7692 H   0  0  0  0  0  0  0  0  0  0  0  0
    1.6955   17.7920    7.2337 H   0  0  0  0  0  0  0  0  0  0  0  0
    0.9514   20.8773    5.8373 H   0  0  0  0  0  0  0  0  0  0  0  0
    1.2136   19.3740    7.9094 H   0  0  0  0  0  0  0  0  0  0  0  0
    0.4696   22.2291    7.3661 H   0  0  0  0  0  0  0  0  0  0  0  0
    0.2349   22.7629    8.5507 H   0  0  0  0  0  0  0  0  0  0  0  0
   -0.0790   23.2938   10.8867 H   0  0  0  0  0  0  0  0  0  0  0  0
   -0.7625   26.2688    8.9664 H   0  0  0  0  0  0  0  0  0  0  0  0
   -0.6627   25.6310   10.0297 H   0  0  0  0  0  0  0  0  0  0  0  0
   -0.6840   26.2064    8.1113 H   0  0  0  0  0  0  0  0  0  0  0  0
   -0.8505   27.6274    4.9487 H   0  0  0  0  0  0  0  0  0  0  0  0
   -0.2767   26.2197    2.3884 H   0  0  0  0  0  0  0  0  0  0  0  0
   -0.1624   26.3829    0.1513 H   0  0  0  0  0  0  0  0  0  0  0  0
   -0.7074   28.2331    0.6322 H   0  0  0  0  0  0  0  0  0  0  0  0
   -0.6248   28.0046    0.3588 H   0  0  0  0  0  0  0  0  0  0  0  0
   -0.9619   29.1644    0.5966 H   0  0  0  0  0  0  0  0  0  0  0  0
   -1.4360   30.5711    1.7955 H   0  0  0  0  0  0  0  0  0  0  0  0
   -1.3823   29.2707    6.0540 H   0  0  0  0  0  0  0  0  0  0  0  0
   -1.5978   30.9470    2.6010 H   0  0  0  0  0  0  0  0  0  0  0  0
   -1.4754   29.7881    5.3653 H   0  0  0  0  0  0  0  0  0  0  0  0
   -0.8817   27.6806    5.1791 H   0  0  0  0  0  0  0  0  0  0  0  0
   -1.3077   27.9981    9.9434 H   0  0  0  0  0  0  0  0  0  0  0  0
   -2.0131   30.4848   10.2052 H   0  0  0  0  0  0  0  0  0  0  0  0
   -1.7543   30.6241    6.0186 H   0  0  0  0  0  0  0  0  0  0  0  0
   -2.1537   31.5964    7.8612 H   0  0  0  0  0  0  0  0  0  0  0  0
   -1.3431   29.2384    5.6178 H   0  0  0  0  0  0  0  0  0  0  0  0
   -0.1955   25.3113    4.7421 H   0  0  0  0  0  0  0  0  0  0  0  0
   -0.3850   25.8085    5.4704 H   0  0  0  0  0  0  0  0  0  0  0  0
    0.4205   23.3806    3.5809 H   0  0  0  0  0  0  0  0  0  0  0  0
   -0.1262   24.9037    5.3448 H   0  0  0  0  0  0  0  0  0  0  0  0
   -0.2017   25.6604    3.4840 H   0  0  0  0  0  0  0  0  0  0  0  0
   -0.4983   27.0274    2.3574 H   0  0  0  0  0  0  0  0  0  0  0  0
   -0.0317   25.7098    0.9439 H   0  0  0  0  0  0  0  0  0  0  0  0
   -0.1784   25.4543    3.9294 H   0  0  0  0  0  0  0  0  0  0  0  0
    0.0496   25.5396    0.4411 H   0  0  0  0  0  0  0  0  0  0  0  0
    0.6017   23.7568   -0.3971 H   0  0  0  0  0  0  0  0  0  0  0  0
    0.8958   22.5070    0.3123 H   0  0  0  0  0  0  0  0  0  0  0  0
    1.4324   20.1425    1.9312 H   0  0  0  0  0  0  0  0  0  0  0  0
    1.5552   19.9537    0.9627 H   0  0  0  0  0  0  0  0  0  0  0  0
    0.8077   22.7985    0.4014 H   0  0  0  0  0  0  0  0  0  0  0  0
    1.4703   21.0768   -2.1967 H   0  0  0  0  0  0  0  0  0  0  0  0
    1.6986   19.7949   -0.5220 H   0  0  0  0  0  0  0  0  0  0  0  0
    0.9426   22.6730   -0.9028 H   0  0  0  0  0  0  0  0  0  0  0  0
    1.4573   19.7587    3.0615 H   0  0  0  0  0  0  0  0  0  0  0  0
    1.2587   20.0397    4.7506 H   0  0  0  0  0  0  0  0  0  0  0  0
    0.7285   21.5327    6.4004 H   0  0  0  0  0  0  0  0  0  0  0  0
    1.6106   18.9819    3.9141 H   0  0  0  0  0  0  0  0  0  0  0  0
    1.8417   17.6601    5.7799 H   0  0  0  0  0  0  0  0  0  0  0  0
    1.5787   18.2465    7.1923 H   0  0  0  0  0  0  0  0  0  0  0  0
    1.5408   18.0433    8.5036 H   0  0  0  0  0  0  0  0  0  0  0  0
    1.3162   18.7035    9.0947 H   0  0  0  0  0  0  0  0  0  0  0  0
    0.4912   21.9554    8.0839 H   0  0  0  0  0  0  0  0  0  0  0  0
    0.0910   23.8464    6.3850 H   0  0  0  0  0  0  0  0  0  0  0  0
    0.2022   23.1363    7.5689 H   0  0  0  0  0  0  0  0  0  0  0  0
    0.6190   22.3450    4.7989 H   0  0  0  0  0  0  0  0  0  0  0  0
  1  2  2  3
  2  3  1  0
  3  4  1  0
  4  5  1  0
  5  6  1  0
  6  7  1  0
  7  8  1  0
  8  9  1  0
  9 10  1  0
 10 11  1  0
 11 12  1  0
 12 13  1  0
 12 14  1  0
 14 15  1  0
 15 16  1  0
 15 17  1  0
 17 18  1  0
  9 19  1  0
 19 20  1  0
 20 21  1  0
 21 22  1  0
 22 23  1  0
 23 24  1  0
  8 25  1  0
 25 26  1  0
 26 27  1  0
 27 28  1  0
 28 29  1  0
 28 30  1  0
 30 31  1  0
 31 32  1  0
 32 33  1  0
 33 34  1  0
 32 35  1  0
 35 36  1  0
 36 37  1  0
 37 38  1  0
 38 39  1  0
 39 40  1  0
 40 41  1  0
 41 42  1  0
 40 43  1  0
 43 44  1  0
 41  4  1  0
 42  5  1  0
 15 12  1  0
 24 19  1  0
 36 26  1  0
 39 37  1  0
 24 21  1  0
 31 28  1  0
 43 37  1  0
  1 45  1  0
  1 46  1  0
  2 47  1  0
  3 48  1  0
  3 49  1  0
  4 50  1  0
  5 51  1  0
  7 52  1  0
  7 53  1  0
  8 54  1  0
 11 55  1  0
 11 56  1  0
 13 57  1  0
 13 58  1  0
 13 59  1  0
 14 60  1  0
 14 61  1  0
 16 62  1  0
 17 63  1  0
 17 64  1  0
 19 65  1  0
 21 66  1  0
 22 67  1  0
 23 68  1  0
 23 69  1  0
 24 70  1  0
 25 71  1  0
 25 72  1  0
 26 73  1  0
 27 74  1  0
 27 75  1  0
 29 76  1  0
 29 77  1  0
 29 78  1  0
 30 79  1  0
 30 80  1  0
 31 81  1  0
 32 82  1  0
 33 83  1  0
 33 84  1  0
 34 85  1  0
 34 86  1  0
 34 87  1  0
 35 88  1  0
 35 89  1  0
 36 90  1  0
 38 91  1  0
 38 92  1  0
 39 93  1  0
 40 94  1  0
 41 95  1  0
 43 96  1  0
 44 97  1  0
 44 98  1  0
 44 99  1  0
M  RAD  2   9   2  20   2
M  END
