
     RDKit          2D

 63 66  0  0  0  0  0  0  0  0999 V2000
   10.5562  -22.4263   -7.0390 C   0  0  0  0  0  0  0  0  0  0  0  0
   11.9094  -22.2332   -7.6565 C   0  0  0  0  0  0  0  0  0  0  0  0
   13.2627  -22.0402   -8.2740 C   0  0  0  0  0  0  0  0  0  0  0  0
   14.6160  -21.8472   -8.8916 C   0  0  0  0  0  0  0  0  0  0  0  0
   15.9693  -21.6542   -9.5092 C   0  0  0  0  0  0  0  0  0  0  0  0
   15.2383  -21.8775  -10.7999 C   0  0  0  0  0  0  0  0  0  0  0  0
   16.2336  -21.7843  -11.9184 C   0  0  0  0  0  0  0  0  0  0  0  0
   17.5796  -21.5033  -11.3188 C   0  0  0  0  0  0  0  0  0  0  0  0
   17.4162  -21.4229   -9.8299 C   0  0  0  0  0  0  0  0  0  0  0  0
   17.5617  -21.2882   -8.3431 C   0  0  0  0  0  0  0  0  0  0  0  0
   17.7073  -21.1536   -6.8562 C   0  0  0  0  0  0  0  0  0  0  0  0
   19.1804  -20.8872   -6.7617 C   0  0  0  0  0  0  0  0  0  0  0  0
   19.2923  -20.9766   -8.2549 C   0  0  0  0  0  0  0  0  0  0  0  0
   20.7655  -20.7102   -8.1604 C   0  0  0  0  0  0  0  0  0  0  0  0
   20.6535  -20.6209   -6.6673 C   0  0  0  0  0  0  0  0  0  0  0  0
   20.5416  -20.5316   -5.1741 C   0  0  0  0  0  0  0  0  0  0  0  0
   19.2101  -20.7187   -4.5093 C   0  0  0  0  0  0  0  0  0  0  0  0
   21.7612  -20.2551   -4.3459 C   0  0  0  0  0  0  0  0  0  0  0  0
   22.9809  -19.9786   -3.5175 C   0  0  0  0  0  0  0  0  0  0  0  0
   16.2846  -21.3732   -6.4344 C   0  0  0  0  0  0  0  0  0  0  0  0
   15.2519  -21.4756   -5.3513 C   0  0  0  0  0  0  0  0  0  0  0  0
   16.3084  -21.2139   -4.3192 C   0  0  0  0  0  0  0  0  0  0  0  0
   17.3650  -20.9522   -3.2871 C   0  0  0  0  0  0  0  0  0  0  0  0
   17.3412  -21.1114   -5.4022 C   0  0  0  0  0  0  0  0  0  0  0  0
   12.6704  -22.2470   -9.6366 N   0  0  0  0  0  0  0  0  0  0  0  0
   11.2023  -22.5175   -9.7831 O   0  0  0  0  0  0  0  0  0  0  0  0
    9.2029  -22.6193   -6.4214 H   0  0  0  0  0  0  0  0  0  0  0  0
   13.6856  -21.8586   -6.8464 H   0  0  0  0  0  0  0  0  0  0  0  0
   14.3012  -21.9565   -9.6158 H   0  0  0  0  0  0  0  0  0  0  0  0
   15.3690  -21.6196   -7.6145 H   0  0  0  0  0  0  0  0  0  0  0  0
   16.2423  -21.4985   -8.0425 H   0  0  0  0  0  0  0  0  0  0  0  0
   14.2565  -22.1315  -11.9051 H   0  0  0  0  0  0  0  0  0  0  0  0
   14.5493  -21.9703  -10.4098 H   0  0  0  0  0  0  0  0  0  0  0  0
   16.9800  -21.7482  -13.2189 H   0  0  0  0  0  0  0  0  0  0  0  0
   15.0436  -22.0577  -12.7896 H   0  0  0  0  0  0  0  0  0  0  0  0
   19.0228  -21.2271  -11.0175 H   0  0  0  0  0  0  0  0  0  0  0  0
   18.0446  -21.5260  -12.7448 H   0  0  0  0  0  0  0  0  0  0  0  0
   18.8837  -21.1786  -10.0221 H   0  0  0  0  0  0  0  0  0  0  0  0
   16.0917  -21.5363   -8.1768 H   0  0  0  0  0  0  0  0  0  0  0  0
   18.9528  -21.0802   -8.8643 H   0  0  0  0  0  0  0  0  0  0  0  0
   18.8897  -20.8310   -5.2913 H   0  0  0  0  0  0  0  0  0  0  0  0
   19.5830  -21.0328   -9.7254 H   0  0  0  0  0  0  0  0  0  0  0  0
   17.8900  -21.2566   -8.7079 H   0  0  0  0  0  0  0  0  0  0  0  0
   22.2386  -20.4439   -8.0659 H   0  0  0  0  0  0  0  0  0  0  0  0
   20.8774  -20.7996   -9.6536 H   0  0  0  0  0  0  0  0  0  0  0  0
   22.1267  -20.3546   -6.5728 H   0  0  0  0  0  0  0  0  0  0  0  0
   19.0981  -20.6294   -3.0161 H   0  0  0  0  0  0  0  0  0  0  0  0
   17.8251  -21.0007   -5.0116 H   0  0  0  0  0  0  0  0  0  0  0  0
   22.5947  -20.1989   -5.5917 H   0  0  0  0  0  0  0  0  0  0  0  0
   20.9278  -20.3112   -3.0999 H   0  0  0  0  0  0  0  0  0  0  0  0
   24.2004  -19.7021   -2.6892 H   0  0  0  0  0  0  0  0  0  0  0  0
   22.1479  -20.0379   -2.2714 H   0  0  0  0  0  0  0  0  0  0  0  0
   23.8137  -19.9192   -4.7636 H   0  0  0  0  0  0  0  0  0  0  0  0
   15.5315  -21.5995   -7.7116 H   0  0  0  0  0  0  0  0  0  0  0  0
   14.2192  -21.5781   -4.2682 H   0  0  0  0  0  0  0  0  0  0  0  0
   14.0774  -21.7479   -6.2437 H   0  0  0  0  0  0  0  0  0  0  0  0
   15.2758  -21.3163   -3.2361 H   0  0  0  0  0  0  0  0  0  0  0  0
   18.4215  -20.6904   -2.2548 H   0  0  0  0  0  0  0  0  0  0  0  0
   16.3382  -20.3166   -2.3972 H   0  0  0  0  0  0  0  0  0  0  0  0
   18.5129  -21.5510   -4.0444 H   0  0  0  0  0  0  0  0  0  0  0  0
   18.4154  -20.8480   -4.3891 H   0  0  0  0  0  0  0  0  0  0  0  0
   13.3947  -22.2172  -10.9498 H   0  0  0  0  0  0  0  0  0  0  0  0
   10.6100  -22.7242  -11.1456 H   0  0  0  0  0  0  0  0  0  0  0  0
  1  2  3  0
  2  3  1  0
  3  4  1  0
  4  5  1  0
  5  6  1  0
  6  7  1  0
  7  8  1  0
  8  9  1  0
  9 10  1  0
 10 11  1  0
 11 12  1  0
 12 13  1  0
 13 14  1  0
 14 15  1  0
 15 16  1  0
 16 17  2  3
 16 18  1  0
 18 19  1  0
 11 20  1  0
 20 21  1  0
 21 22  1  0
 22 23  1  0
 22 24  1  0
  3 25  1  0
 25 26  1  0
  9  5  1  0
 24 11  1  0
 15 12  1  0
 24 20  1  0
  1 27  1  0
  3 28  1  0
  4 29  1  0
  4 30  1  0
  5 31  1  0
  6 32  1  0
  6 33  1  0
  7 34  1  0
  7 35  1  0
  8 36  1  0
  8 37  1  0
  9 38  1  0
 10 39  1  0
 10 40  1  0
 12 41  1  0
 13 42  1  0
 13 43  1  0
 14 44  1  0
 14 45  1  0
 15 46  1  0
 17 47  1  0
 17 48  1  0
 18 49  1  0
 18 50  1  0
 19 51  1  0
 19 52  1  0
 19 53  1  0
 20 54  1  0
 21 55  1  0
 21 56  1  0
 22 57  1  0
 23 58  1  0
 23 59  1  0
 23 60  1  0
 24 61  1  0
 25 62  1  0
 26 63  1  0
M  END
