
     RDKit          2D

 39 38  0  0  0  0  0  0  0  0999 V2000
    1.6136   30.5626    7.3792 C   0  0  0  0  0  0  0  0  0  0  0  0
    2.4377   31.2722    6.3460 C   0  0  0  0  0  0  0  0  0  0  0  0
    3.2618   31.9818    5.3130 C   0  0  0  0  0  0  0  0  0  0  0  0
    4.0637   30.7330    5.0949 N   0  0  0  0  0  0  0  0  0  0  0  0
    3.7488   29.4932    5.8782 C   0  0  0  0  0  0  0  0  0  0  0  0
    3.1145   29.3949    6.4885 O   0  0  0  0  0  0  0  0  0  0  0  0
    4.5508   28.2445    5.6601 C   0  0  0  0  0  0  0  0  0  0  0  0
    5.3527   26.9957    5.4421 C   0  0  0  0  0  0  0  0  0  0  0  0
    6.1547   25.7470    5.2240 C   0  0  0  0  0  0  0  0  0  0  0  0
    6.9566   24.4982    5.0060 C   0  0  0  0  0  0  0  0  0  0  0  0
    5.3205   25.0328    6.2458 C   0  0  0  0  0  0  0  0  0  0  0  0
    4.0859   32.6915    4.2799 C   0  0  0  0  0  0  0  0  0  0  0  0
    3.6136   34.0125    4.8106 O   0  0  0  0  0  0  0  0  0  0  0  0
    4.9100   33.4011    3.2468 C   0  0  0  0  0  0  0  0  0  0  0  0
    5.7341   34.1107    2.2137 O   0  0  0  0  0  0  0  0  0  0  0  0
    5.3841   32.0800    2.7175 O   0  0  0  0  0  0  0  0  0  0  0  0
    0.7895   29.8529    8.4122 H   0  0  0  0  0  0  0  0  0  0  0  0
    1.1338   31.8834    7.9037 H   0  0  0  0  0  0  0  0  0  0  0  0
    1.9179   29.4306    7.0594 H   0  0  0  0  0  0  0  0  0  0  0  0
    2.6309   30.2127    6.1566 H   0  0  0  0  0  0  0  0  0  0  0  0
    1.9590   32.5930    6.8715 H   0  0  0  0  0  0  0  0  0  0  0  0
    2.4598   33.2305    5.5310 H   0  0  0  0  0  0  0  0  0  0  0  0
    5.2065   30.5492    4.1409 H   0  0  0  0  0  0  0  0  0  0  0  0
    3.7277   27.5353    6.6943 H   0  0  0  0  0  0  0  0  0  0  0  0
    5.3738   28.9536    4.6259 H   0  0  0  0  0  0  0  0  0  0  0  0
    6.1755   27.7047    4.4075 H   0  0  0  0  0  0  0  0  0  0  0  0
    4.8128   26.6701    6.0641 H   0  0  0  0  0  0  0  0  0  0  0  0
    6.9889   26.4611    4.2023 H   0  0  0  0  0  0  0  0  0  0  0  0
    7.7585   23.2494    4.7880 H   0  0  0  0  0  0  0  0  0  0  0  0
    6.1414   23.7926    6.0488 H   0  0  0  0  0  0  0  0  0  0  0  0
    7.4921   24.8219    4.3791 H   0  0  0  0  0  0  0  0  0  0  0  0
    4.4862   24.3187    7.2676 H   0  0  0  0  0  0  0  0  0  0  0  0
    5.7844   24.2784    6.2559 H   0  0  0  0  0  0  0  0  0  0  0  0
    4.7364   25.6845    6.3829 H   0  0  0  0  0  0  0  0  0  0  0  0
    4.6551   31.4667    3.6272 H   0  0  0  0  0  0  0  0  0  0  0  0
    3.9875   35.3744    4.3050 H   0  0  0  0  0  0  0  0  0  0  0  0
    4.5399   34.7987    3.6462 H   0  0  0  0  0  0  0  0  0  0  0  0
    5.7352   35.6097    2.1552 H   0  0  0  0  0  0  0  0  0  0  0  0
    6.3348   32.0341    1.5582 H   0  0  0  0  0  0  0  0  0  0  0  0
  1  2  1  0
  2  3  1  0
  3  4  1  0
  4  5  1  0
  5  6  2  0
  5  7  1  0
  7  8  1  0
  8  9  1  0
  9 10  1  0
  9 11  1  0
  3 12  1  0
 12 13  1  0
 12 14  1  0
 14 15  1  0
 14 16  1  0
  1 17  1  0
  1 18  1  0
  1 19  1  0
  2 20  1  0
  2 21  1  0
  3 22  1  0
  4 23  1  0
  7 24  1  0
  7 25  1  0
  8 26  1  0
  8 27  1  0
  9 28  1  0
 10 29  1  0
 10 30  1  0
 10 31  1  0
 11 32  1  0
 11 33  1  0
 11 34  1  0
 12 35  1  0
 13 36  1  0
 14 37  1  0
 15 38  1  0
 16 39  1  0
M  END
