
     RDKit          2D

 34 36  0  0  0  0  0  0  0  0999 V2000
   20.1264  -20.6861  -10.6717 N   0  0  0  0  0  0  0  0  0  0  0  0
   19.6079  -21.9064   -9.9703 C   0  0  0  0  0  0  0  0  0  0  0  0
   19.0894  -23.1267   -9.2688 C   0  0  0  0  0  0  0  0  0  0  0  0
   18.5709  -24.3470   -8.5674 N   0  0  0  0  0  0  0  0  0  0  0  0
   20.4182  -23.7975   -9.4535 N   0  0  0  0  0  0  0  0  0  0  0  0
   17.7605  -22.4558   -9.0842 N   0  0  0  0  0  0  0  0  0  0  0  0
   16.6473  -23.1769   -8.3835 C   0  0  0  0  0  0  0  0  0  0  0  0
   15.5341  -23.8980   -7.6828 O   0  0  0  0  0  0  0  0  0  0  0  0
   14.6419  -22.7076   -7.8753 C   0  0  0  0  0  0  0  0  0  0  0  0
   13.3128  -22.0372   -7.6917 N   0  0  0  0  0  0  0  0  0  0  0  0
   13.0966  -20.6458   -8.2087 C   0  0  0  0  0  0  0  0  0  0  0  0
   12.8806  -19.2544   -8.7258 C   0  0  0  0  0  0  0  0  0  0  0  0
   14.2099  -19.9248   -8.9094 C   0  0  0  0  0  0  0  0  0  0  0  0
   15.5391  -20.5952   -9.0930 C   0  0  0  0  0  0  0  0  0  0  0  0
   15.7551  -21.9865   -8.5760 C   0  0  0  0  0  0  0  0  0  0  0  0
   19.1932  -19.5608  -11.0077 H   0  0  0  0  0  0  0  0  0  0  0  0
   21.5782  -20.5912  -11.0372 H   0  0  0  0  0  0  0  0  0  0  0  0
   18.5521  -21.3077  -10.0259 H   0  0  0  0  0  0  0  0  0  0  0  0
   21.0377  -22.3481  -10.0726 H   0  0  0  0  0  0  0  0  0  0  0  0
   19.5040  -25.4723   -8.2314 H   0  0  0  0  0  0  0  0  0  0  0  0
   17.8206  -24.4848   -8.3358 H   0  0  0  0  0  0  0  0  0  0  0  0
   20.6339  -25.1894   -8.9375 H   0  0  0  0  0  0  0  0  0  0  0  0
   21.6318  -23.2270  -10.1256 H   0  0  0  0  0  0  0  0  0  0  0  0
   17.7263  -21.3341   -9.5494 H   0  0  0  0  0  0  0  0  0  0  0  0
   17.0901  -23.9265   -8.2202 H   0  0  0  0  0  0  0  0  0  0  0  0
   13.7976  -23.7121   -7.1487 H   0  0  0  0  0  0  0  0  0  0  0  0
   12.1995  -22.7582   -6.9910 H   0  0  0  0  0  0  0  0  0  0  0  0
   11.6865  -20.6750   -7.6982 H   0  0  0  0  0  0  0  0  0  0  0  0
   11.4544  -19.0416   -8.3128 H   0  0  0  0  0  0  0  0  0  0  0  0
   13.1599  -17.9369   -9.3862 H   0  0  0  0  0  0  0  0  0  0  0  0
   14.0289  -21.2704   -8.2717 H   0  0  0  0  0  0  0  0  0  0  0  0
   16.9307  -20.4688   -9.6384 H   0  0  0  0  0  0  0  0  0  0  0  0
   15.8183  -19.2777   -9.7535 H   0  0  0  0  0  0  0  0  0  0  0  0
   17.0613  -21.5981   -9.2030 H   0  0  0  0  0  0  0  0  0  0  0  0
  1  2  1  0
  2  3  1  0
  3  4  1  0
  3  5  1  0
  3  6  1  0
  6  7  1  0
  7  8  1  0
  8  9  1  0
  9 10  1  0
 10 11  1  0
 11 12  1  0
 12 13  1  0
 13 14  1  0
 14 15  1  0
 15  7  1  0
 15  9  1  0
 13 11  1  0
  1 16  1  0
  1 17  1  0
  2 18  1  0
  2 19  1  0
  4 20  1  0
  4 21  1  0
  5 22  1  0
  5 23  1  0
  6 24  1  0
  7 25  1  0
  9 26  1  0
 10 27  1  0
 11 28  1  0
 12 29  1  0
 12 30  1  0
 13 31  1  0
 14 32  1  0
 14 33  1  0
 15 34  1  0
M  END
