
     RDKit          2D

 21 20  0  0  0  0  0  0  0  0999 V2000
   21.0434  -23.1013  -12.9718 C   0  0  0  0  0  0  0  0  0  0  0  0
   19.9792  -22.2875  -12.2973 C   0  0  0  0  0  0  0  0  0  0  0  0
   18.9149  -21.4737  -11.6228 C   0  0  0  0  0  0  0  0  0  0  0  0
   17.8506  -20.6599  -10.9482 O   0  0  0  0  0  0  0  0  0  0  0  0
   17.1306  -21.2100   -9.7528 C   0  0  0  0  0  0  0  0  0  0  0  0
   16.4105  -21.7602   -8.5574 C   0  0  0  0  0  0  0  0  0  0  0  0
   15.6906  -22.3104   -7.3620 C   0  0  0  0  0  0  0  0  0  0  0  0
   14.6263  -21.4967   -6.6874 O   0  0  0  0  0  0  0  0  0  0  0  0
   16.0349  -23.6743   -6.8413 O   0  0  0  0  0  0  0  0  0  0  0  0
   22.1077  -23.9151  -13.6464 H   0  0  0  0  0  0  0  0  0  0  0  0
   21.2679  -21.9919  -13.9561 H   0  0  0  0  0  0  0  0  0  0  0  0
   20.8190  -24.2107  -11.9875 H   0  0  0  0  0  0  0  0  0  0  0  0
   19.9006  -21.3938  -13.4994 H   0  0  0  0  0  0  0  0  0  0  0  0
   20.0577  -23.1812  -11.0952 H   0  0  0  0  0  0  0  0  0  0  0  0
   18.6918  -22.5823  -10.6373 H   0  0  0  0  0  0  0  0  0  0  0  0
   19.1380  -20.3651  -12.6082 H   0  0  0  0  0  0  0  0  0  0  0  0
   17.9469  -22.4655   -9.8389 H   0  0  0  0  0  0  0  0  0  0  0  0
   16.3143  -19.9546   -9.6667 H   0  0  0  0  0  0  0  0  0  0  0  0
   17.2232  -23.0178   -8.6468 H   0  0  0  0  0  0  0  0  0  0  0  0
   15.5979  -20.5026   -8.4680 H   0  0  0  0  0  0  0  0  0  0  0  0
   15.3150  -24.2245   -5.6459 H   0  0  0  0  0  0  0  0  0  0  0  0
  1  2  1  0
  2  3  1  0
  3  4  1  0
  4  5  1  0
  5  6  1  0
  6  7  1  0
  7  8  2  0
  7  9  1  0
  1 10  1  0
  1 11  1  0
  1 12  1  0
  2 13  1  0
  2 14  1  0
  3 15  1  0
  3 16  1  0
  5 17  1  0
  5 18  1  0
  6 19  1  0
  6 20  1  0
  9 21  1  0
M  END
