
     RDKit          2D

 24 24  0  0  0  0  0  0  0  0999 V2000
   -2.8485   25.7376    0.9612 O   0  0  0  0  0  0  0  0  0  0  0  0
   -2.1137   25.6270    0.4792 C   0  0  0  0  0  0  0  0  0  0  0  0
   -2.2559   26.1246   -0.9287 O   0  0  0  0  0  0  0  0  0  0  0  0
   -0.8195   25.0191    0.9326 C   0  0  0  0  0  0  0  0  0  0  0  0
   -1.6758   24.9362    2.1615 C   0  0  0  0  0  0  0  0  0  0  0  0
   -1.3246   24.3824    3.5104 C   0  0  0  0  0  0  0  0  0  0  0  0
   -0.0305   23.7744    3.9638 C   0  0  0  0  0  0  0  0  0  0  0  0
    1.2322   23.5703    3.1802 C   0  0  0  0  0  0  0  0  0  0  0  0
    1.5124   23.9236    1.7496 C   0  0  0  0  0  0  0  0  0  0  0  0
    0.5994   24.5684    0.7493 C   0  0  0  0  0  0  0  0  0  0  0  0
   -3.5502   26.7326   -1.3821 H   0  0  0  0  0  0  0  0  0  0  0  0
   -0.7109   25.4360   -0.5042 H   0  0  0  0  0  0  0  0  0  0  0  0
   -3.0081   25.2138    2.7923 H   0  0  0  0  0  0  0  0  0  0  0  0
   -2.2891   25.3186    1.6494 H   0  0  0  0  0  0  0  0  0  0  0  0
   -1.7724   24.0978    4.9134 H   0  0  0  0  0  0  0  0  0  0  0  0
   -2.7285   24.7729    3.8661 H   0  0  0  0  0  0  0  0  0  0  0  0
    0.7433   23.1420    5.0825 H   0  0  0  0  0  0  0  0  0  0  0  0
   -0.7423   23.6139    5.2743 H   0  0  0  0  0  0  0  0  0  0  0  0
    2.6449   23.0663    3.1721 H   0  0  0  0  0  0  0  0  0  0  0  0
    1.7484   22.9795    4.4587 H   0  0  0  0  0  0  0  0  0  0  0  0
    2.5003   23.9275    0.6209 H   0  0  0  0  0  0  0  0  0  0  0  0
    2.8680   23.3475    2.0334 H   0  0  0  0  0  0  0  0  0  0  0  0
    0.4185   25.0772   -0.6500 H   0  0  0  0  0  0  0  0  0  0  0  0
    1.7736   24.4407   -0.1754 H   0  0  0  0  0  0  0  0  0  0  0  0
  1  2  2  0
  2  3  1  0
  2  4  1  0
  4  5  1  0
  5  6  1  0
  6  7  1  0
  7  8  1  0
  8  9  1  0
  9 10  1  0
 10  4  1  0
  3 11  1  0
  4 12  1  0
  5 13  1  0
  5 14  1  0
  6 15  1  0
  6 16  1  0
  7 17  1  0
  7 18  1  0
  8 19  1  0
  8 20  1  0
  9 21  1  0
  9 22  1  0
 10 23  1  0
 10 24  1  0
M  END
