
     RDKit          2D

 58 62  0  0  0  0  0  0  0  0999 V2000
   25.4608  -23.1740  -13.2409 C   0  0  0  0  0  0  0  0  0  0  0  0
   24.1681  -22.4312  -13.0758 C   0  0  0  0  0  0  0  0  0  0  0  0
   22.8755  -21.6884  -12.9106 C   0  0  0  0  0  0  0  0  0  0  0  0
   21.5828  -20.9455  -12.7455 C   0  0  0  0  0  0  0  0  0  0  0  0
   20.2902  -20.2027  -12.5803 C   0  0  0  0  0  0  0  0  0  0  0  0
   18.9976  -19.4599  -12.4152 C   0  0  0  0  0  0  0  0  0  0  0  0
   17.7049  -18.7171  -12.2500 C   0  0  0  0  0  0  0  0  0  0  0  0
   17.8981  -18.0818  -13.5951 O   0  0  0  0  0  0  0  0  0  0  0  0
   17.5117  -19.3523  -10.9050 C   0  0  0  0  0  0  0  0  0  0  0  0
   16.9286  -19.7268   -9.5748 C   0  0  0  0  0  0  0  0  0  0  0  0
   15.8263  -18.7899   -9.9710 O   0  0  0  0  0  0  0  0  0  0  0  0
   17.8608  -20.7012   -8.9178 O   0  0  0  0  0  0  0  0  0  0  0  0
   19.0201  -20.9287   -9.8420 C   0  0  0  0  0  0  0  0  0  0  0  0
   19.4991  -21.8503   -8.7597 C   0  0  0  0  0  0  0  0  0  0  0  0
   20.2205  -22.8194   -7.8706 C   0  0  0  0  0  0  0  0  0  0  0  0
   19.4068  -22.9982   -6.6233 C   0  0  0  0  0  0  0  0  0  0  0  0
   20.5092  -23.9351   -6.2271 C   0  0  0  0  0  0  0  0  0  0  0  0
   18.1825  -22.1397   -6.7414 C   0  0  0  0  0  0  0  0  0  0  0  0
   16.9229  -21.7196   -6.0436 C   0  0  0  0  0  0  0  0  0  0  0  0
   16.2015  -20.7506   -6.9327 C   0  0  0  0  0  0  0  0  0  0  0  0
   15.7225  -19.8290   -8.0150 C   0  0  0  0  0  0  0  0  0  0  0  0
   17.0152  -20.5717   -8.1801 C   0  0  0  0  0  0  0  0  0  0  0  0
   18.2395  -21.4302   -8.0618 C   0  0  0  0  0  0  0  0  0  0  0  0
   18.8044  -20.0951  -11.0701 C   0  0  0  0  0  0  0  0  0  0  0  0
   26.7534  -23.9169  -13.4061 H   0  0  0  0  0  0  0  0  0  0  0  0
   25.6320  -22.5729  -14.6045 H   0  0  0  0  0  0  0  0  0  0  0  0
   25.2896  -23.7751  -11.8774 H   0  0  0  0  0  0  0  0  0  0  0  0
   24.6460  -21.3854  -14.0391 H   0  0  0  0  0  0  0  0  0  0  0  0
   23.6902  -23.4770  -12.1125 H   0  0  0  0  0  0  0  0  0  0  0  0
   23.2843  -20.7359  -13.9949 H   0  0  0  0  0  0  0  0  0  0  0  0
   22.4667  -22.6408  -11.8263 H   0  0  0  0  0  0  0  0  0  0  0  0
   22.1897  -19.7428  -13.4052 H   0  0  0  0  0  0  0  0  0  0  0  0
   20.9760  -22.1482  -12.0858 H   0  0  0  0  0  0  0  0  0  0  0  0
   20.9575  -18.9397  -13.0382 H   0  0  0  0  0  0  0  0  0  0  0  0
   19.7855  -21.5468  -12.1460 H   0  0  0  0  0  0  0  0  0  0  0  0
   19.1908  -18.8247  -13.7602 H   0  0  0  0  0  0  0  0  0  0  0  0
   16.4123  -17.9742  -12.0849 H   0  0  0  0  0  0  0  0  0  0  0  0
   16.9468  -17.0230  -14.0681 H   0  0  0  0  0  0  0  0  0  0  0  0
   16.2652  -18.5192  -10.9523 H   0  0  0  0  0  0  0  0  0  0  0  0
   16.1726  -19.6837   -8.7858 H   0  0  0  0  0  0  0  0  0  0  0  0
   14.6670  -18.5623   -9.0468 H   0  0  0  0  0  0  0  0  0  0  0  0
   20.3127  -21.4534  -10.3932 H   0  0  0  0  0  0  0  0  0  0  0  0
   20.6586  -22.0778   -9.6838 H   0  0  0  0  0  0  0  0  0  0  0  0
   21.2291  -22.8442   -8.9806 H   0  0  0  0  0  0  0  0  0  0  0  0
   20.7717  -23.3283   -7.6009 H   0  0  0  0  0  0  0  0  0  0  0  0
   18.9705  -23.4802   -5.2715 H   0  0  0  0  0  0  0  0  0  0  0  0
   21.6116  -24.8720   -5.8308 H   0  0  0  0  0  0  0  0  0  0  0  0
   19.8030  -24.2195   -4.9346 H   0  0  0  0  0  0  0  0  0  0  0  0
   20.9532  -23.8458   -6.8831 H   0  0  0  0  0  0  0  0  0  0  0  0
   18.1254  -22.8491   -5.4211 H   0  0  0  0  0  0  0  0  0  0  0  0
   17.2501  -22.5946   -4.8701 H   0  0  0  0  0  0  0  0  0  0  0  0
   15.7635  -21.4922   -5.1195 H   0  0  0  0  0  0  0  0  0  0  0  0
   15.0421  -20.5231   -6.0086 H   0  0  0  0  0  0  0  0  0  0  0  0
   14.4417  -19.3484   -7.3999 H   0  0  0  0  0  0  0  0  0  0  0  0
   15.3731  -18.9465   -9.1765 H   0  0  0  0  0  0  0  0  0  0  0  0
   16.8672  -19.7658   -9.4364 H   0  0  0  0  0  0  0  0  0  0  0  0
   17.9789  -20.5792   -9.2692 H   0  0  0  0  0  0  0  0  0  0  0  0
   17.4986  -19.4227  -10.7655 H   0  0  0  0  0  0  0  0  0  0  0  0
  1  2  1  0
  2  3  1  0
  3  4  1  0
  4  5  1  0
  5  6  1  0
  6  7  1  0
  7  8  1  0
  7  9  1  0
  9 10  1  0
 10 11  1  0
 10 12  1  0
 12 13  1  0
 13 14  1  0
 14 15  1  0
 15 16  1  0
 16 17  1  0
 16 18  1  0
 18 19  1  0
 19 20  1  0
 20 21  1  0
 21 22  1  0
 22 23  1  0
 13 24  1  0
 24  6  1  0
 24  9  1  0
 23 14  1  0
 23 18  1  0
 22 20  1  0
  1 25  1  0
  1 26  1  0
  1 27  1  0
  2 28  1  0
  2 29  1  0
  3 30  1  0
  3 31  1  0
  4 32  1  0
  4 33  1  0
  5 34  1  0
  5 35  1  0
  6 36  1  0
  7 37  1  0
  8 38  1  0
  9 39  1  0
 10 40  1  0
 11 41  1  0
 13 42  1  0
 14 43  1  0
 15 44  1  0
 15 45  1  0
 16 46  1  0
 17 47  1  0
 17 48  1  0
 17 49  1  0
 18 50  1  0
 19 51  1  0
 19 52  1  0
 20 53  1  0
 21 54  1  0
 21 55  1  0
 22 56  1  0
 23 57  1  0
 24 58  1  0
M  END
