
     RDKit          2D

 54 61  0  0  0  0  0  0  0  0999 V2000
   17.9669  -23.6651   -6.2817 C   0  0  0  0  0  0  0  0  0  0  0  0
   17.8944  -23.0812   -7.6616 C   0  0  0  0  0  0  0  0  0  0  0  0
   19.3343  -23.1915   -8.0671 C   0  0  0  0  0  0  0  0  0  0  0  0
   18.3307  -22.6061   -9.0158 C   0  0  0  0  0  0  0  0  0  0  0  0
   17.0171  -22.1280   -9.5597 C   0  0  0  0  0  0  0  0  0  0  0  0
   16.0134  -21.5425  -10.5084 O   0  0  0  0  0  0  0  0  0  0  0  0
   17.4534  -21.6528  -10.9139 C   0  0  0  0  0  0  0  0  0  0  0  0
   18.9185  -21.9659  -10.8402 C   0  0  0  0  0  0  0  0  0  0  0  0
   20.3836  -22.2790  -10.7666 C   0  0  0  0  0  0  0  0  0  0  0  0
   21.8487  -22.5920  -10.6930 F   0  0  0  0  0  0  0  0  0  0  0  0
   17.9824  -20.4010  -14.1917 C   0  0  0  0  0  0  0  0  0  0  0  0
   16.5568  -20.8019  -12.5553 F   0  0  0  0  0  0  0  0  0  0  0  0
   18.8207  -21.1792  -12.6992 C   0  0  0  0  0  0  0  0  0  0  0  0
   20.2899  -21.3633  -12.9397 C   0  0  0  0  0  0  0  0  0  0  0  0
   21.7666  -21.6086  -13.0356 C   0  0  0  0  0  0  0  0  0  0  0  0
   19.5473  -21.7359  -11.6907 C   0  0  0  0  0  0  0  0  0  0  0  0
   18.0706  -21.4907  -11.5948 N   0  0  0  0  0  2  0  0  0  0  0  0
   17.3365  -20.8729  -12.7477 C   0  0  0  0  0  0  0  0  0  0  0  0
   16.2889  -21.1038  -11.6993 O   0  0  0  0  0  0  0  0  0  0  0  0
   14.8637  -20.7189  -11.9655 C   0  0  0  0  0  0  0  0  0  0  0  0
   14.4856  -20.1063  -13.2814 C   0  0  0  0  0  0  0  0  0  0  0  0
   13.4386  -20.3340  -12.2317 C   0  0  0  0  0  0  0  0  0  0  0  0
   13.8168  -20.9466  -10.9158 C   0  0  0  0  0  0  0  0  0  0  0  0
   12.4768  -20.9636  -10.2418 O   0  0  0  0  0  0  0  0  0  0  0  0
   16.0600  -20.3745  -13.3580 N   0  0  0  0  0  2  0  0  0  0  0  0
   16.8026  -20.0019  -14.6069 C   0  0  0  0  0  0  0  0  0  0  0  0
   18.0791  -20.5003  -13.9966 C   0  0  0  0  0  0  0  0  0  0  0  0
   19.5557  -20.7455  -14.0926 C   0  0  0  0  0  0  0  0  0  0  0  0
   18.0395  -24.2490   -4.9020 H   0  0  0  0  0  0  0  0  0  0  0  0
   16.4914  -23.4532   -6.1145 H   0  0  0  0  0  0  0  0  0  0  0  0
   19.4403  -23.9466   -6.2795 H   0  0  0  0  0  0  0  0  0  0  0  0
   16.4177  -22.8360   -7.5655 H   0  0  0  0  0  0  0  0  0  0  0  0
   20.6636  -23.1612   -8.7613 H   0  0  0  0  0  0  0  0  0  0  0  0
   20.0686  -23.8093   -6.9142 H   0  0  0  0  0  0  0  0  0  0  0  0
   19.4813  -22.4368   -9.9630 H   0  0  0  0  0  0  0  0  0  0  0  0
   15.9879  -22.3690   -8.4955 H   0  0  0  0  0  0  0  0  0  0  0  0
   19.3232  -22.3185   -9.4395 H   0  0  0  0  0  0  0  0  0  0  0  0
   19.0475  -21.7084  -12.3123 H   0  0  0  0  0  0  0  0  0  0  0  0
   20.2727  -23.4566   -9.8442 H   0  0  0  0  0  0  0  0  0  0  0  0
   20.6752  -21.1309  -11.6868 H   0  0  0  0  0  0  0  0  0  0  0  0
   18.8772  -20.6163  -14.0885 H   0  0  0  0  0  0  0  0  0  0  0  0
   23.2433  -21.8539  -13.1316 H   0  0  0  0  0  0  0  0  0  0  0  0
   21.9511  -21.0726  -14.4244 H   0  0  0  0  0  0  0  0  0  0  0  0
   21.9421  -22.2044  -11.6702 H   0  0  0  0  0  0  0  0  0  0  0  0
   19.8244  -22.3440  -10.3478 H   0  0  0  0  0  0  0  0  0  0  0  0
   20.9851  -22.1035  -11.4724 H   0  0  0  0  0  0  0  0  0  0  0  0
   15.6356  -19.9399  -14.2300 H   0  0  0  0  0  0  0  0  0  0  0  0
   13.6421  -19.4995  -14.3634 H   0  0  0  0  0  0  0  0  0  0  0  0
   12.0134  -19.9491  -12.4979 H   0  0  0  0  0  0  0  0  0  0  0  0
   14.6602  -21.5533   -9.8339 H   0  0  0  0  0  0  0  0  0  0  0  0
   12.3439  -21.5083   -8.8505 H   0  0  0  0  0  0  0  0  0  0  0  0
   18.2893  -19.9681  -15.3832 H   0  0  0  0  0  0  0  0  0  0  0  0
   20.8737  -20.7044  -14.8077 H   0  0  0  0  0  0  0  0  0  0  0  0
   19.4834  -20.1616  -15.4724 H   0  0  0  0  0  0  0  0  0  0  0  0
  1  2  1  0
  2  3  1  0
  3  4  1  0
  4  5  1  0
  5  6  1  0
  6  7  1  0
  7  8  1  0
  8  9  1  0
  9 10  1  0
  7 11  1  0
 11 12  1  0
 11 13  1  0
 13 14  1  0
 14 15  1  0
 14 16  1  0
 16 17  1  0
 17 18  1  0
 18 19  1  0
 19 20  1  0
 20 21  1  0
 21 22  1  0
 22 23  1  0
 23 24  1  0
 18 25  1  0
 25 26  1  0
 26 27  1  0
 27 28  1  0
  4  2  1  0
  7  5  1  0
 26 11  1  0
 26 13  1  0
 28 14  1  0
 27 18  1  0
 22 20  1  0
 23 20  1  0
  1 29  1  0
  1 30  1  0
  1 31  1  0
  2 32  1  0
  3 33  1  0
  3 34  1  0
  4 35  1  0
  5 36  1  0
  8 37  1  0
  8 38  1  0
  9 39  1  0
  9 40  1  0
 13 41  1  0
 15 42  1  0
 15 43  1  0
 15 44  1  0
 16 45  1  0
 16 46  1  0
 21 47  1  0
 21 48  1  0
 22 49  1  0
 23 50  1  0
 24 51  1  0
 27 52  1  0
 28 53  1  0
 28 54  1  0
M  RAD  2  17   2  25   2
M  END
