
     RDKit          2D

 73 80  0  0  0  0  0  0  0  0999 V2000
   19.2786  -22.1561   -6.4748 C   0  0  0  0  0  0  0  0  0  0  0  0
   17.9340  -22.3155   -5.8293 C   0  0  0  0  0  0  0  0  0  0  0  0
   16.7576  -21.5415   -6.3458 C   0  0  0  0  0  0  0  0  0  0  0  0
   17.8702  -21.1007   -7.2502 C   0  0  0  0  0  0  0  0  0  0  0  0
   19.2860  -21.0918   -7.7455 C   0  0  0  0  0  0  0  0  0  0  0  0
   20.7490  -21.2903   -8.0105 C   0  0  0  0  0  0  0  0  0  0  0  0
   20.6688  -22.2415   -6.8535 C   0  0  0  0  0  0  0  0  0  0  0  0
   21.1316  -20.4222   -9.1725 C   0  0  0  0  0  0  0  0  0  0  0  0
   19.9051  -19.6872   -9.6256 C   0  0  0  0  0  0  0  0  0  0  0  0
   18.7644  -20.1010   -8.7437 C   0  0  0  0  0  0  0  0  0  0  0  0
   17.4577  -20.3171   -8.0397 O   0  0  0  0  0  0  0  0  0  0  0  0
   17.9696  -19.1554   -9.5946 C   0  0  0  0  0  0  0  0  0  0  0  0
   17.1748  -18.2097  -10.4456 C   0  0  0  0  0  0  0  0  0  0  0  0
   16.3800  -17.2641  -11.2965 C   0  0  0  0  0  0  0  0  0  0  0  0
   17.8191  -20.1265   -8.3897 C   0  0  0  0  0  0  0  0  0  0  0  0
   16.1843  -21.6758   -5.9901 C   0  0  0  0  0  0  0  0  0  0  0  0
   15.3869  -22.3517   -4.9143 C   0  0  0  0  0  0  0  0  0  0  0  0
   15.3108  -23.3037   -3.7576 C   0  0  0  0  0  0  0  0  0  0  0  0
   16.7802  -22.8850   -4.7580 Mg  0  0  0  0  0  2  0  0  0  0  0  0
   13.9543  -22.3113   -4.4719 C   0  0  0  0  0  0  0  0  0  0  0  0
   12.7255  -21.5781   -4.9219 C   0  0  0  0  0  0  0  0  0  0  0  0
   14.0222  -21.3475   -5.6398 C   0  0  0  0  0  0  0  0  0  0  0  0
   15.3190  -21.1169   -6.3576 C   0  0  0  0  0  0  0  0  0  0  0  0
   14.6377  -20.1467   -7.2766 C   0  0  0  0  0  0  0  0  0  0  0  0
   13.3410  -20.3773   -6.5588 C   0  0  0  0  0  0  0  0  0  0  0  0
   12.0442  -20.6080   -5.8409 C   0  0  0  0  0  0  0  0  0  0  0  0
   15.2267  -19.3615   -8.4108 C   0  0  0  0  0  0  0  0  0  0  0  0
   13.7707  -19.2217   -8.0784 C   0  0  0  0  0  0  0  0  0  0  0  0
   15.4343  -18.6025   -9.3832 C   0  0  0  0  0  0  0  0  0  0  0  0
   16.6426  -19.3525   -8.9061 C   0  0  0  0  0  0  0  0  0  0  0  0
   16.9184  -18.4502  -10.0722 C   0  0  0  0  0  0  0  0  0  0  0  0
   20.3398  -23.0012   -5.8349 H   0  0  0  0  0  0  0  0  0  0  0  0
   19.7939  -21.3361   -7.6203 H   0  0  0  0  0  0  0  0  0  0  0  0
   17.9446  -23.2853   -4.6850 H   0  0  0  0  0  0  0  0  0  0  0  0
   16.1686  -22.3267   -5.2116 H   0  0  0  0  0  0  0  0  0  0  0  0
   18.7045  -22.0356   -6.4255 H   0  0  0  0  0  0  0  0  0  0  0  0
   19.6864  -22.0886   -6.6986 H   0  0  0  0  0  0  0  0  0  0  0  0
   22.1952  -21.6877   -8.0337 H   0  0  0  0  0  0  0  0  0  0  0  0
   20.7674  -23.2221   -5.7226 H   0  0  0  0  0  0  0  0  0  0  0  0
   22.1314  -22.5410   -6.9982 H   0  0  0  0  0  0  0  0  0  0  0  0
   19.2061  -21.9420   -6.7087 H   0  0  0  0  0  0  0  0  0  0  0  0
   22.4978  -21.0011   -8.9527 H   0  0  0  0  0  0  0  0  0  0  0  0
   21.7998  -19.6752  -10.2885 H   0  0  0  0  0  0  0  0  0  0  0  0
   20.8296  -19.0938  -10.6468 H   0  0  0  0  0  0  0  0  0  0  0  0
   19.1538  -18.7311  -10.5039 H   0  0  0  0  0  0  0  0  0  0  0  0
   16.0256  -19.8724   -8.0775 H   0  0  0  0  0  0  0  0  0  0  0  0
   19.1999  -18.8392  -10.3924 H   0  0  0  0  0  0  0  0  0  0  0  0
   16.5362  -19.1115   -9.1549 H   0  0  0  0  0  0  0  0  0  0  0  0
   18.4052  -17.8935  -11.2432 H   0  0  0  0  0  0  0  0  0  0  0  0
   15.7414  -18.1661  -10.0059 H   0  0  0  0  0  0  0  0  0  0  0  0
   15.5853  -16.3185  -12.1475 H   0  0  0  0  0  0  0  0  0  0  0  0
   17.6105  -16.9475  -12.0939 H   0  0  0  0  0  0  0  0  0  0  0  0
   15.0619  -17.4631  -10.6088 H   0  0  0  0  0  0  0  0  0  0  0  0
   18.9123  -19.6680   -9.3085 H   0  0  0  0  0  0  0  0  0  0  0  0
   17.3990  -22.4206   -5.5213 H   0  0  0  0  0  0  0  0  0  0  0  0
   17.6115  -21.6988   -6.4513 H   0  0  0  0  0  0  0  0  0  0  0  0
   15.2348  -24.2557   -2.6009 H   0  0  0  0  0  0  0  0  0  0  0  0
   16.7739  -23.6001   -3.9053 H   0  0  0  0  0  0  0  0  0  0  0  0
   13.8495  -23.1256   -3.4701 H   0  0  0  0  0  0  0  0  0  0  0  0
   18.1081  -23.5169   -4.4620 H   0  0  0  0  0  0  0  0  0  0  0  0
   12.9937  -22.8787   -3.4692 H   0  0  0  0  0  0  0  0  0  0  0  0
   14.1078  -23.2980   -3.3526 H   0  0  0  0  0  0  0  0  0  0  0  0
   12.1231  -22.3572   -3.7904 H   0  0  0  0  0  0  0  0  0  0  0  0
   15.2327  -22.0958   -5.1655 H   0  0  0  0  0  0  0  0  0  0  0  0
   16.0545  -20.4054   -7.4543 H   0  0  0  0  0  0  0  0  0  0  0  0
   12.6596  -19.4071   -7.4778 H   0  0  0  0  0  0  0  0  0  0  0  0
   10.6456  -20.0850   -5.9832 H   0  0  0  0  0  0  0  0  0  0  0  0
   12.4296  -18.6070   -8.3493 H   0  0  0  0  0  0  0  0  0  0  0  0
   16.1089  -17.8587  -10.4976 H   0  0  0  0  0  0  0  0  0  0  0  0
   14.2261  -17.8525   -9.8603 H   0  0  0  0  0  0  0  0  0  0  0  0
   17.1942  -17.5479  -11.2383 H   0  0  0  0  0  0  0  0  0  0  0  0
   18.3365  -18.3225  -10.5440 H   0  0  0  0  0  0  0  0  0  0  0  0
   15.4361  -18.2274  -10.0153 H   0  0  0  0  0  0  0  0  0  0  0  0
  1  2  2  3
  2  3  1  0
  3  4  1  0
  4  5  1  0
  5  6  1  0
  6  7  1  0
  6  8  1  0
  8  9  1  0
  9 10  1  0
 10 11  1  0
 10 12  1  0
 12 13  1  0
 13 14  1  0
  4 15  1  0
 15 16  1  0
 16 17  1  0
 17 18  1  0
 17 19  1  0
 17 20  1  0
 20 21  1  0
 21 22  1  0
 22 23  1  0
 23 24  1  0
 24 25  1  0
 25 26  1  0
 26 27  1  0
 27 28  1  0
 28 29  1  0
 29 30  1  0
 30 31  1  0
 23  3  1  0
 27 24  1  0
 10  5  1  0
 30 15  1  0
 26 21  1  0
 30 27  1  0
 25 22  1  0
 28 24  1  0
  1 32  1  0
  1 33  1  0
  2 34  1  0
  3 35  1  0
  4 36  1  0
  5 37  1  0
  6 38  1  0
  7 39  1  0
  7 40  1  0
  7 41  1  0
  8 42  1  0
  8 43  1  0
  9 44  1  0
  9 45  1  0
 11 46  1  0
 12 47  1  0
 12 48  1  0
 13 49  1  0
 13 50  1  0
 14 51  1  0
 14 52  1  0
 14 53  1  0
 15 54  1  0
 16 55  1  0
 16 56  1  0
 18 57  1  0
 18 58  1  0
 18 59  1  0
 19 60  1  0
 20 61  1  0
 20 62  1  0
 21 63  1  0
 22 64  1  0
 23 65  1  0
 25 66  1  0
 26 67  1  0
 28 68  1  0
 29 69  1  0
 29 70  1  0
 31 71  1  0
 31 72  1  0
 31 73  1  0
M  END
