
     RDKit          2D

105111  0  0  0  0  0  0  0  0999 V2000
   20.6714  -25.1712   -3.6321 C   0  0  0  0  0  0  0  0  0  0  0  0
   20.9525  -24.3052   -4.8240 C   0  0  0  0  0  0  0  0  0  0  0  0
   20.1620  -24.4862   -6.0859 C   0  0  0  0  0  0  0  0  0  0  0  0
   19.4678  -25.5658   -5.3097 C   0  0  0  0  0  0  0  0  0  0  0  0
   18.4278  -26.1806   -6.1989 C   0  0  0  0  0  0  0  0  0  0  0  0
   17.3291  -26.9763   -6.8389 C   0  0  0  0  0  0  0  0  0  0  0  0
   16.2304  -27.7721   -7.4789 C   0  0  0  0  0  0  0  0  0  0  0  0
   16.4821  -25.7411   -6.9207 C   0  0  0  0  0  0  0  0  0  0  0  0
   15.6351  -24.5058   -7.0026 C   0  0  0  0  0  0  0  0  0  0  0  0
   18.4793  -25.4809   -7.5247 C   0  0  0  0  0  0  0  0  0  0  0  0
   19.5511  -24.4337   -7.4548 C   0  0  0  0  0  0  0  0  0  0  0  0
   20.5382  -23.3273   -7.6811 C   0  0  0  0  0  0  0  0  0  0  0  0
   21.5254  -22.2208   -7.9073 C   0  0  0  0  0  0  0  0  0  0  0  0
   20.8512  -22.2463   -9.2471 C   0  0  0  0  0  0  0  0  0  0  0  0
   21.2793  -21.2900  -10.3205 C   0  0  0  0  0  0  0  0  0  0  0  0
   20.6051  -21.3156  -11.6602 C   0  0  0  0  0  0  0  0  0  0  0  0
   19.5029  -22.2975  -11.9265 C   0  0  0  0  0  0  0  0  0  0  0  0
   19.5639  -22.7533  -10.4988 N   0  0  0  0  0  0  0  0  0  0  0  0
   18.4006  -23.2794  -12.1929 C   0  0  0  0  0  0  0  0  0  0  0  0
   17.7265  -23.3050  -13.5325 C   0  0  0  0  0  0  0  0  0  0  0  0
   19.4419  -21.8418  -13.3543 C   0  0  0  0  0  0  0  0  0  0  0  0
   19.3809  -21.3860  -14.7821 C   0  0  0  0  0  0  0  0  0  0  0  0
   19.3198  -20.9303  -16.2099 C   0  0  0  0  0  0  0  0  0  0  0  0
   19.2587  -20.4746  -17.6377 C   0  0  0  0  0  0  0  0  0  0  0  0
   18.9557  -19.0402  -17.9548 C   0  0  0  0  0  0  0  0  0  0  0  0
   19.5008  -21.4533  -18.7483 C   0  0  0  0  0  0  0  0  0  0  0  0
   22.3815  -20.3081  -10.0542 C   0  0  0  0  0  0  0  0  0  0  0  0
   23.0557  -20.2825   -8.7145 C   0  0  0  0  0  0  0  0  0  0  0  0
   22.6276  -21.2388   -7.6411 C   0  0  0  0  0  0  0  0  0  0  0  0
   24.1043  -19.2103   -8.7437 C   0  0  0  0  0  0  0  0  0  0  0  0
   24.0782  -18.5733  -10.1014 C   0  0  0  0  0  0  0  0  0  0  0  0
   25.1804  -17.5914   -9.8351 C   0  0  0  0  0  0  0  0  0  0  0  0
   23.0135  -19.2517  -10.9114 C   0  0  0  0  0  0  0  0  0  0  0  0
   23.8217  -18.1415  -11.5148 C   0  0  0  0  0  0  0  0  0  0  0  0
   24.8420  -17.0495  -11.6429 C   0  0  0  0  0  0  0  0  0  0  0  0
   24.5855  -16.6178  -13.0563 C   0  0  0  0  0  0  0  0  0  0  0  0
   25.3937  -15.5075  -13.6597 C   0  0  0  0  0  0  0  0  0  0  0  0
   24.7195  -15.5331  -14.9995 O   0  0  0  0  0  0  0  0  0  0  0  0
   26.3429  -14.3919  -13.9832 O   0  0  0  0  0  0  0  0  0  0  0  0
   27.1860  -14.1342  -12.7696 C   0  0  0  0  0  0  0  0  0  0  0  0
   27.8180  -13.0778  -13.6267 C   0  0  0  0  0  0  0  0  0  0  0  0
   26.7579  -15.0905  -11.6962 C   0  0  0  0  0  0  0  0  0  0  0  0
   27.3361  -15.1820  -10.3151 C   0  0  0  0  0  0  0  0  0  0  0  0
   25.6502  -15.9393  -12.2463 C   0  0  0  0  0  0  0  0  0  0  0  0
   21.4619  -24.9901   -2.3702 H   0  0  0  0  0  0  0  0  0  0  0  0
   19.5996  -26.2184   -3.7019 H   0  0  0  0  0  0  0  0  0  0  0  0
   22.0243  -23.2579   -4.7542 H   0  0  0  0  0  0  0  0  0  0  0  0
   21.1008  -23.3692   -6.4333 H   0  0  0  0  0  0  0  0  0  0  0  0
   18.9692  -26.5604   -4.3035 H   0  0  0  0  0  0  0  0  0  0  0  0
   20.0856  -25.4505   -4.2699 H   0  0  0  0  0  0  0  0  0  0  0  0
   18.3405  -26.6371   -5.4449 H   0  0  0  0  0  0  0  0  0  0  0  0
   17.8444  -27.9408   -6.8365 H   0  0  0  0  0  0  0  0  0  0  0  0
   15.1317  -28.5679   -8.1189 H   0  0  0  0  0  0  0  0  0  0  0  0
   16.5299  -27.7199   -8.3108 H   0  0  0  0  0  0  0  0  0  0  0  0
   15.5846  -27.9589   -6.1379 H   0  0  0  0  0  0  0  0  0  0  0  0
   15.7394  -26.1375   -7.1958 H   0  0  0  0  0  0  0  0  0  0  0  0
   17.1029  -25.1669   -6.6574 H   0  0  0  0  0  0  0  0  0  0  0  0
   14.7881  -23.2706   -7.0844 H   0  0  0  0  0  0  0  0  0  0  0  0
   14.5143  -25.3131   -7.5875 H   0  0  0  0  0  0  0  0  0  0  0  0
   16.7559  -23.6986   -6.4176 H   0  0  0  0  0  0  0  0  0  0  0  0
   18.2988  -24.9781   -8.9263 H   0  0  0  0  0  0  0  0  0  0  0  0
   17.6708  -26.1087   -7.9090 H   0  0  0  0  0  0  0  0  0  0  0  0
   19.1466  -24.1498   -8.8711 H   0  0  0  0  0  0  0  0  0  0  0  0
   19.9121  -23.2951   -9.0438 H   0  0  0  0  0  0  0  0  0  0  0  0
   21.1643  -23.3594   -6.3185 H   0  0  0  0  0  0  0  0  0  0  0  0
   21.8567  -22.5794   -6.4890 H   0  0  0  0  0  0  0  0  0  0  0  0
   19.7982  -22.8933  -10.0971 H   0  0  0  0  0  0  0  0  0  0  0  0
   20.0041  -23.3625   -8.7117 H   0  0  0  0  0  0  0  0  0  0  0  0
   21.1550  -20.2955  -12.6126 H   0  0  0  0  0  0  0  0  0  0  0  0
   18.3294  -23.2736   -9.8242 H   0  0  0  0  0  0  0  0  0  0  0  0
   20.6570  -22.8270   -9.4742 H   0  0  0  0  0  0  0  0  0  0  0  0
   17.9726  -24.2357  -11.1195 H   0  0  0  0  0  0  0  0  0  0  0  0
   16.6243  -24.2869  -13.7989 H   0  0  0  0  0  0  0  0  0  0  0  0
   18.0263  -22.4268  -14.7109 H   0  0  0  0  0  0  0  0  0  0  0  0
   18.0290  -22.1301  -13.7672 H   0  0  0  0  0  0  0  0  0  0  0  0
   20.8646  -21.3786  -13.4593 H   0  0  0  0  0  0  0  0  0  0  0  0
   17.9233  -21.6649  -15.0009 H   0  0  0  0  0  0  0  0  0  0  0  0
   20.8418  -21.0491  -14.7370 H   0  0  0  0  0  0  0  0  0  0  0  0
   17.8579  -21.2632  -16.2536 H   0  0  0  0  0  0  0  0  0  0  0  0
   20.7817  -20.5974  -16.1662 H   0  0  0  0  0  0  0  0  0  0  0  0
   18.8946  -18.5845  -19.3826 H   0  0  0  0  0  0  0  0  0  0  0  0
   18.7136  -18.0614  -16.8442 H   0  0  0  0  0  0  0  0  0  0  0  0
   19.7428  -22.4321  -19.8590 H   0  0  0  0  0  0  0  0  0  0  0  0
   18.0238  -21.6894  -18.8621 H   0  0  0  0  0  0  0  0  0  0  0  0
   20.9777  -21.2173  -18.6345 H   0  0  0  0  0  0  0  0  0  0  0  0
   21.8033  -20.2166  -11.4353 H   0  0  0  0  0  0  0  0  0  0  0  0
   23.8185  -20.1401   -7.4308 H   0  0  0  0  0  0  0  0  0  0  0  0
   22.5761  -21.9385   -6.3153 H   0  0  0  0  0  0  0  0  0  0  0  0
   23.6742  -20.6079   -6.7712 H   0  0  0  0  0  0  0  0  0  0  0  0
   24.4907  -19.5130   -7.3262 H   0  0  0  0  0  0  0  0  0  0  0  0
   25.2156  -18.3012   -8.3095 H   0  0  0  0  0  0  0  0  0  0  0  0
   26.2917  -16.6823   -9.4010 H   0  0  0  0  0  0  0  0  0  0  0  0
   25.3093  -16.8324  -11.1224 H   0  0  0  0  0  0  0  0  0  0  0  0
   25.4558  -18.0050   -8.4197 H   0  0  0  0  0  0  0  0  0  0  0  0
   22.1703  -19.5094  -12.1249 H   0  0  0  0  0  0  0  0  0  0  0  0
   23.2108  -18.0889  -12.8838 H   0  0  0  0  0  0  0  0  0  0  0  0
   25.6595  -16.8299  -10.4044 H   0  0  0  0  0  0  0  0  0  0  0  0
   23.5207  -17.2962  -13.8663 H   0  0  0  0  0  0  0  0  0  0  0  0
   23.6173  -16.5150  -15.2658 H   0  0  0  0  0  0  0  0  0  0  0  0
   28.1612  -13.6556  -11.7352 H   0  0  0  0  0  0  0  0  0  0  0  0
   28.4500  -12.0214  -14.4838 H   0  0  0  0  0  0  0  0  0  0  0  0
   26.8994  -13.4435  -14.7547 H   0  0  0  0  0  0  0  0  0  0  0  0
   28.7366  -12.7121  -12.4986 H   0  0  0  0  0  0  0  0  0  0  0  0
   28.4471  -14.2616   -9.9046 H   0  0  0  0  0  0  0  0  0  0  0  0
   26.9260  -16.1281   -9.2256 H   0  0  0  0  0  0  0  0  0  0  0  0
  1  2  2  3
  2  3  1  0
  3  4  1  0
  4  5  1  0
  5  6  1  0
  6  7  1  0
  6  8  1  0
  8  9  1  0
  5 10  1  0
 10 11  1  0
 11 12  1  0
 12 13  1  0
 13 14  1  0
 14 15  1  0
 15 16  2  3
 16 17  1  0
 17 18  1  6
 17 19  1  0
 19 20  2  3
 17 21  1  0
 21 22  1  0
 22 23  1  0
 23 24  1  0
 24 25  2  3
 24 26  1  0
 15 27  1  0
 27 28  1  0
 28 29  1  0
 28 30  1  0
 30 31  1  0
 31 32  1  6
 31 33  1  0
 33 34  1  0
 34 35  1  0
 35 36  1  0
 36 37  1  0
 37 38  1  1
 37 39  1  0
 39 40  1  0
 40 41  1  0
 40 42  1  0
 42 43  2  3
 44 42  1  1
 11  3  1  0
 29 13  1  0
 34 31  1  0
 44 35  1  0
 33 27  1  0
 44 36  1  0
 44 37  1  0
  1 45  1  0
  1 46  1  0
  2 47  1  0
  3 48  1  1
  4 49  1  0
  4 50  1  0
  5 51  1  1
  6 52  1  1
  7 53  1  0
  7 54  1  0
  7 55  1  0
  8 56  1  0
  8 57  1  0
  9 58  1  0
  9 59  1  0
  9 60  1  0
 10 61  1  0
 10 62  1  0
 11 63  1  6
 12 64  1  0
 12 65  1  0
 13 66  1  6
 14 67  1  0
 14 68  1  0
 16 69  1  0
 18 70  1  0
 18 71  1  0
 19 72  1  0
 20 73  1  0
 20 74  1  0
 21 75  1  0
 21 76  1  0
 22 77  1  0
 22 78  1  0
 23 79  1  0
 23 80  1  0
 25 81  1  0
 25 82  1  0
 26 83  1  0
 26 84  1  0
 26 85  1  0
 27 86  1  6
 28 87  1  6
 29 88  1  0
 29 89  1  0
 30 90  1  0
 30 91  1  0
 32 92  1  0
 32 93  1  0
 32 94  1  0
 33 95  1  6
 34 96  1  1
 35 97  1  1
 36 98  1  1
 38 99  1  0
 40100  1  1
 41101  1  0
 41102  1  0
 41103  1  0
 43104  1  0
 43105  1  0
M  END
