
     RDKit          2D

 19 19  0  0  0  0  0  0  0  0999 V2000
   16.0573  -17.1333   -5.1893 O   0  0  0  0  0  0  0  0  0  0  0  0
   15.5531  -18.4470   -5.7090 O   0  0  0  0  0  0  0  0  0  0  0  0
   14.8914  -19.4182   -4.7768 As  0  0  0  0  0  3  0  0  0  0  0  0
   14.3872  -20.7318   -5.2964 C   0  0  0  0  0  0  0  0  0  0  0  0
   15.0303  -20.4540   -6.6227 O   0  0  0  0  0  0  0  0  0  0  0  0
   13.8830  -22.0455   -5.8160 O   0  0  0  0  0  0  0  0  0  0  0  0
   14.0097  -22.1408   -6.5972 Br  0  0  0  0  0  0  0  0  0  0  0  0
   13.7441  -21.0097   -3.9700 C   0  0  0  0  0  0  0  0  0  0  0  0
   13.1010  -21.2875   -2.6436 O   0  0  0  0  0  0  0  0  0  0  0  0
   12.5974  -22.6015   -3.1631 C   0  0  0  0  0  0  0  0  0  0  0  0
   13.2405  -22.3237   -4.4894 N   0  0  0  0  0  0  0  0  0  0  0  0
   13.3391  -23.0563   -5.7945 O   0  0  0  0  0  0  0  0  0  0  0  0
   15.8997  -16.7907   -3.7374 H   0  0  0  0  0  0  0  0  0  0  0  0
   14.8170  -18.9173   -3.3648 H   0  0  0  0  0  0  0  0  0  0  0  0
   14.9146  -21.4524   -7.7362 H   0  0  0  0  0  0  0  0  0  0  0  0
   14.1656  -19.7393   -3.2928 H   0  0  0  0  0  0  0  0  0  0  0  0
   11.9543  -22.8793   -1.8367 H   0  0  0  0  0  0  0  0  0  0  0  0
   12.0938  -23.9155   -3.6824 H   0  0  0  0  0  0  0  0  0  0  0  0
   13.7566  -22.7859   -6.5275 H   0  0  0  0  0  0  0  0  0  0  0  0
  1  2  1  0
  2  3  1  0
  3  4  1  0
  4  5  1  0
  4  6  1  0
  6  7  1  0
  4  8  1  0
  8  9  1  0
  9 10  1  0
 10 11  1  0
 11 12  1  0
 11  8  1  0
  1 13  1  0
  3 14  1  0
  5 15  1  0
  8 16  1  0
 10 17  1  0
 10 18  1  0
 12 19  1  0
M  END
