
     RDKit          2D

 98107  0  0  0  0  0  0  0  0999 V2000
   14.9236  -17.0393  -12.7785 C   0  0  0  0  0  0  0  0  0  0  0  0
   14.0700  -17.3012  -11.5731 C   0  0  0  0  0  0  0  0  0  0  0  0
   14.4482  -18.3850  -10.6075 C   0  0  0  0  0  0  0  0  0  0  0  0
   14.8264  -19.4688   -9.6419 C   0  0  0  0  0  0  0  0  0  0  0  0
   13.6306  -19.1357   -8.7997 C   0  0  0  0  0  0  0  0  0  0  0  0
   15.2046  -20.5526   -8.6764 C   0  0  0  0  0  0  0  0  0  0  0  0
   15.5827  -21.6364   -7.7107 C   0  0  0  0  0  0  0  0  0  0  0  0
   15.9609  -22.7202   -6.7452 C   0  0  0  0  0  0  0  0  0  0  0  0
   14.3870  -21.3032   -6.8685 C   0  0  0  0  0  0  0  0  0  0  0  0
   16.7784  -21.9695   -8.5529 C   0  0  0  0  0  0  0  0  0  0  0  0
   16.4002  -20.8857   -9.5186 C   0  0  0  0  0  0  0  0  0  0  0  0
   17.5960  -21.2189  -10.3608 C   0  0  0  0  0  0  0  0  0  0  0  0
   16.0220  -19.8019  -10.4841 C   0  0  0  0  0  0  0  0  0  0  0  0
   17.0792  -19.8433  -11.5476 C   0  0  0  0  0  0  0  0  0  0  0  0
   15.9662  -18.8413  -11.6348 C   0  0  0  0  0  0  0  0  0  0  0  0
   16.3423  -18.1446  -12.9089 C   0  0  0  0  0  0  0  0  0  0  0  0
   17.5858  -18.9045  -13.2641 C   0  0  0  0  0  0  0  0  0  0  0  0
   18.6166  -19.9656  -13.0157 C   0  0  0  0  0  0  0  0  0  0  0  0
   19.6387  -19.9504  -14.1135 C   0  0  0  0  0  0  0  0  0  0  0  0
   19.7079  -19.0545  -15.3146 C   0  0  0  0  0  0  0  0  0  0  0  0
   18.7721  -17.9526  -15.7145 C   0  0  0  0  0  0  0  0  0  0  0  0
   19.5481  -18.3967  -15.9741 C   0  0  0  0  0  0  0  0  0  0  0  0
   20.1629  -18.2719  -16.7800 C   0  0  0  0  0  0  0  0  0  0  0  0
   21.1544  -18.2102  -17.9039 C   0  0  0  0  0  0  0  0  0  0  0  0
   22.1459  -18.1485  -19.0278 C   0  0  0  0  0  0  0  0  0  0  0  0
   20.3865  -17.0780  -18.5192 C   0  0  0  0  0  0  0  0  0  0  0  0
   19.3950  -17.1397  -17.3953 C   0  0  0  0  0  0  0  0  0  0  0  0
   20.5853  -18.0452  -17.5112 C   0  0  0  0  0  0  0  0  0  0  0  0
   21.3730  -19.1758  -16.9187 C   0  0  0  0  0  0  0  0  0  0  0  0
   22.6265  -19.7903  -17.4677 C   0  0  0  0  0  0  0  0  0  0  0  0
   23.0518  -20.8865  -16.5362 C   0  0  0  0  0  0  0  0  0  0  0  0
   22.1996  -21.3064  -15.1083 C   0  0  0  0  0  0  0  0  0  0  0  0
   20.9479  -20.7194  -14.5266 C   0  0  0  0  0  0  0  0  0  0  0  0
   19.8699  -20.6422  -13.4863 C   0  0  0  0  0  0  0  0  0  0  0  0
   21.5082  -20.1728  -15.8061 C   0  0  0  0  0  0  0  0  0  0  0  0
   18.1802  -16.7469  -16.6080 C   0  0  0  0  0  0  0  0  0  0  0  0
   17.3264  -16.9915  -15.3992 C   0  0  0  0  0  0  0  0  0  0  0  0
   17.1049  -17.7958  -14.1526 C   0  0  0  0  0  0  0  0  0  0  0  0
   15.9575  -16.8296  -14.1586 C   0  0  0  0  0  0  0  0  0  0  0  0
   14.9454  -16.8603  -13.0520 C   0  0  0  0  0  0  0  0  0  0  0  0
   14.5454  -15.9555  -13.7440 H   0  0  0  0  0  0  0  0  0  0  0  0
   16.1851  -17.6487  -13.3144 H   0  0  0  0  0  0  0  0  0  0  0  0
   12.8383  -16.4794  -11.3334 H   0  0  0  0  0  0  0  0  0  0  0  0
   15.5279  -18.4328  -11.6478 H   0  0  0  0  0  0  0  0  0  0  0  0
   13.2041  -17.9358   -9.9001 H   0  0  0  0  0  0  0  0  0  0  0  0
   12.4350  -18.8026   -7.9575 H   0  0  0  0  0  0  0  0  0  0  0  0
   14.0107  -20.2172   -7.8324 H   0  0  0  0  0  0  0  0  0  0  0  0
   13.1077  -18.0216   -9.6572 H   0  0  0  0  0  0  0  0  0  0  0  0
   14.0088  -20.2194   -7.8342 H   0  0  0  0  0  0  0  0  0  0  0  0
   16.3391  -23.8040   -5.7795 H   0  0  0  0  0  0  0  0  0  0  0  0
   14.8191  -22.5229   -5.7925 H   0  0  0  0  0  0  0  0  0  0  0  0
   17.1948  -23.1817   -7.4624 H   0  0  0  0  0  0  0  0  0  0  0  0
   13.1913  -20.9701   -6.0263 H   0  0  0  0  0  0  0  0  0  0  0  0
   14.6157  -22.3394   -5.8083 H   0  0  0  0  0  0  0  0  0  0  0  0
   14.0097  -20.2184   -7.8333 H   0  0  0  0  0  0  0  0  0  0  0  0
   18.0113  -22.4323   -9.2712 H   0  0  0  0  0  0  0  0  0  0  0  0
   17.2995  -23.0859   -7.6972 H   0  0  0  0  0  0  0  0  0  0  0  0
   18.7917  -21.5521  -11.2030 H   0  0  0  0  0  0  0  0  0  0  0  0
   17.6954  -22.6646   -9.9734 H   0  0  0  0  0  0  0  0  0  0  0  0
   17.7880  -19.8544  -10.9535 H   0  0  0  0  0  0  0  0  0  0  0  0
   18.0335  -20.9389  -11.1751 H   0  0  0  0  0  0  0  0  0  0  0  0
   17.8417  -19.4945  -12.7913 H   0  0  0  0  0  0  0  0  0  0  0  0
   14.7519  -17.9844  -11.4324 H   0  0  0  0  0  0  0  0  0  0  0  0
   15.2294  -17.1426  -12.9961 H   0  0  0  0  0  0  0  0  0  0  0  0
   17.2807  -19.6526  -12.0002 H   0  0  0  0  0  0  0  0  0  0  0  0
   18.3696  -20.7533  -11.7633 H   0  0  0  0  0  0  0  0  0  0  0  0
   20.3856  -21.0836  -13.4747 H   0  0  0  0  0  0  0  0  0  0  0  0
   20.8399  -20.2997  -14.9412 H   0  0  0  0  0  0  0  0  0  0  0  0
   20.9612  -19.7314  -15.7846 H   0  0  0  0  0  0  0  0  0  0  0  0
   20.5613  -18.8094  -16.5236 H   0  0  0  0  0  0  0  0  0  0  0  0
   19.3995  -17.4673  -16.9876 H   0  0  0  0  0  0  0  0  0  0  0  0
   20.8129  -19.8819  -15.4386 H   0  0  0  0  0  0  0  0  0  0  0  0
   19.3373  -19.6067  -14.2282 H   0  0  0  0  0  0  0  0  0  0  0  0
   21.0613  -19.3845  -16.3271 H   0  0  0  0  0  0  0  0  0  0  0  0
   22.2267  -19.2450  -17.7323 H   0  0  0  0  0  0  0  0  0  0  0  0
   23.1374  -18.0869  -20.1516 H   0  0  0  0  0  0  0  0  0  0  0  0
   21.4284  -17.1181  -19.8484 H   0  0  0  0  0  0  0  0  0  0  0  0
   23.2054  -19.1336  -18.6315 H   0  0  0  0  0  0  0  0  0  0  0  0
   19.6187  -15.9459  -19.1345 H   0  0  0  0  0  0  0  0  0  0  0  0
   21.2770  -16.8788  -19.7097 H   0  0  0  0  0  0  0  0  0  0  0  0
   20.8732  -17.2851  -18.7719 H   0  0  0  0  0  0  0  0  0  0  0  0
   21.3076  -17.6538  -18.7661 H   0  0  0  0  0  0  0  0  0  0  0  0
   22.6214  -19.9061  -17.3165 H   0  0  0  0  0  0  0  0  0  0  0  0
   22.7615  -18.9322  -18.6906 H   0  0  0  0  0  0  0  0  0  0  0  0
   23.8442  -20.1932  -18.2453 H   0  0  0  0  0  0  0  0  0  0  0  0
   24.1806  -21.0602  -17.5086 H   0  0  0  0  0  0  0  0  0  0  0  0
   23.8380  -22.0173  -15.9420 H   0  0  0  0  0  0  0  0  0  0  0  0
   23.2449  -22.3589  -14.8859 H   0  0  0  0  0  0  0  0  0  0  0  0
   21.4599  -21.8341  -13.6633 H   0  0  0  0  0  0  0  0  0  0  0  0
   20.7223  -21.7645  -12.9727 H   0  0  0  0  0  0  0  0  0  0  0  0
   19.4187  -21.2807  -12.2062 H   0  0  0  0  0  0  0  0  0  0  0  0
   22.5500  -20.1889  -16.8852 H   0  0  0  0  0  0  0  0  0  0  0  0
   17.0329  -15.7806  -16.6140 H   0  0  0  0  0  0  0  0  0  0  0  0
   18.2834  -15.8702  -17.8208 H   0  0  0  0  0  0  0  0  0  0  0  0
   16.2812  -15.9389  -15.6216 H   0  0  0  0  0  0  0  0  0  0  0  0
   15.6714  -15.7743  -15.1855 H   0  0  0  0  0  0  0  0  0  0  0  0
   13.7981  -15.8940  -13.0580 H   0  0  0  0  0  0  0  0  0  0  0  0
   14.9276  -17.7839  -11.8702 H   0  0  0  0  0  0  0  0  0  0  0  0
  1  2  2  3
  2  3  1  0
  3  4  1  0
  4  5  1  0
  4  6  1  0
  6  7  1  0
  7  8  1  0
  7  9  1  0
  7 10  1  0
 10 11  1  0
 11 12  1  0
 11 13  1  0
 13 14  1  0
 14 15  1  0
 15 16  1  0
 16 17  1  0
 17 18  1  0
 18 19  1  0
 19 20  1  0
 20 21  1  0
 21 22  1  0
 22 23  1  0
 23 24  1  0
 24 25  1  0
 24 26  1  0
 26 27  1  0
 27 28  1  0
 28 29  1  0
 29 30  1  0
 30 31  1  0
 31 32  1  0
 32 33  1  0
 33 34  1  0
 33 35  1  0
 27 36  1  0
 36 37  1  0
 37 38  1  0
 38 39  1  0
 39 40  2  3
 13  4  1  0
 38 16  1  0
 11  6  1  0
 15 13  1  0
 38 17  1  0
 34 18  1  0
 37 21  1  0
 27 23  1  0
 35 29  1  0
 35 32  1  0
  1 41  1  0
  1 42  1  0
  2 43  1  0
  3 44  1  0
  3 45  1  0
  5 46  1  0
  5 47  1  0
  5 48  1  0
  6 49  1  0
  8 50  1  0
  8 51  1  0
  8 52  1  0
  9 53  1  0
  9 54  1  0
  9 55  1  0
 10 56  1  0
 10 57  1  0
 12 58  1  0
 12 59  1  0
 12 60  1  0
 14 61  1  0
 14 62  1  0
 15 63  1  0
 16 64  1  0
 17 65  1  0
 18 66  1  0
 19 67  1  0
 19 68  1  0
 20 69  1  0
 20 70  1  0
 21 71  1  0
 22 72  1  0
 22 73  1  0
 23 74  1  0
 24 75  1  0
 25 76  1  0
 25 77  1  0
 25 78  1  0
 26 79  1  0
 26 80  1  0
 28 81  1  0
 28 82  1  0
 29 83  1  0
 30 84  1  0
 30 85  1  0
 31 86  1  0
 31 87  1  0
 32 88  1  0
 33 89  1  0
 34 90  1  0
 34 91  1  0
 35 92  1  0
 36 93  1  0
 36 94  1  0
 37 95  1  0
 39 96  1  0
 40 97  1  0
 40 98  1  0
M  END
