
     RDKit          2D

 40 46  0  0  0  0  0  0  0  0999 V2000
   22.0401  -20.1058  -16.8489 C   0  0  0  0  0  0  0  0  0  0  0  0
   20.6915  -20.5600  -16.3745 O   0  0  0  0  0  0  0  0  0  0  0  0
   20.3638  -20.5350  -14.9110 C   0  0  0  0  0  0  0  0  0  0  0  0
   20.0360  -20.5100  -13.4475 C   0  0  0  0  0  0  0  0  0  0  0  0
   19.2376  -20.6097  -11.4810 C   0  0  0  0  0  0  0  0  0  0  0  0
   19.6143  -20.3334  -10.1247 C   0  0  0  0  0  0  0  0  0  0  0  0
   19.5768  -20.4969  -11.6152 C   0  0  0  0  0  0  0  0  0  0  0  0
   18.3402  -21.0238  -12.2811 C   0  0  0  0  0  0  0  0  0  0  0  0
   16.9340  -21.5377  -12.1894 C   0  0  0  0  0  0  0  0  0  0  0  0
   15.5278  -22.0517  -12.0976 C   0  0  0  0  0  0  0  0  0  0  0  0
   15.5653  -21.8881  -10.6070 C   0  0  0  0  0  0  0  0  0  0  0  0
   15.6027  -21.7246   -9.1164 C   0  0  0  0  0  0  0  0  0  0  0  0
   15.6402  -21.5610   -7.6258 C   0  0  0  0  0  0  0  0  0  0  0  0
   16.8770  -21.0346   -6.9599 C   0  0  0  0  0  0  0  0  0  0  0  0
   15.6777  -21.3974   -6.1352 C   0  0  0  0  0  0  0  0  0  0  0  0
   14.4410  -21.9238   -6.8011 C   0  0  0  0  0  0  0  0  0  0  0  0
   16.9715  -21.3742  -10.6988 C   0  0  0  0  0  0  0  0  0  0  0  0
   18.3777  -20.8602  -10.7905 C   0  0  0  0  0  0  0  0  0  0  0  0
   23.3887  -19.6517  -17.3234 H   0  0  0  0  0  0  0  0  0  0  0  0
   21.6401  -20.3970  -18.2650 H   0  0  0  0  0  0  0  0  0  0  0  0
   22.4402  -19.8146  -15.4330 H   0  0  0  0  0  0  0  0  0  0  0  0
   18.9970  -21.0773  -15.2078 H   0  0  0  0  0  0  0  0  0  0  0  0
   21.7304  -19.9927  -14.6142 H   0  0  0  0  0  0  0  0  0  0  0  0
   18.6680  -21.0487  -13.7446 H   0  0  0  0  0  0  0  0  0  0  0  0
   21.4040  -19.9713  -13.1503 H   0  0  0  0  0  0  0  0  0  0  0  0
   21.1060  -19.9533  -11.8673 H   0  0  0  0  0  0  0  0  0  0  0  0
   20.3498  -19.9347   -8.8797 H   0  0  0  0  0  0  0  0  0  0  0  0
   20.8566  -20.0877  -12.2821 H   0  0  0  0  0  0  0  0  0  0  0  0
   16.8966  -21.7013  -13.6799 H   0  0  0  0  0  0  0  0  0  0  0  0
   14.1216  -22.5656  -12.0059 H   0  0  0  0  0  0  0  0  0  0  0  0
   15.4903  -22.2153  -13.5882 H   0  0  0  0  0  0  0  0  0  0  0  0
   14.1591  -22.4021  -10.5152 H   0  0  0  0  0  0  0  0  0  0  0  0
   14.1964  -22.2382   -9.0247 H   0  0  0  0  0  0  0  0  0  0  0  0
   17.0032  -21.1948   -9.0258 H   0  0  0  0  0  0  0  0  0  0  0  0
   17.7524  -20.8299   -8.1607 H   0  0  0  0  0  0  0  0  0  0  0  0
   17.8097  -20.5793   -5.8770 H   0  0  0  0  0  0  0  0  0  0  0  0
   15.7152  -21.2338   -4.6447 H   0  0  0  0  0  0  0  0  0  0  0  0
   13.5657  -22.1285   -5.6003 H   0  0  0  0  0  0  0  0  0  0  0  0
   13.5083  -22.3790   -7.8840 H   0  0  0  0  0  0  0  0  0  0  0  0
   17.1801  -21.1492   -9.2304 H   0  0  0  0  0  0  0  0  0  0  0  0
  1  2  1  0
  2  3  1  0
  3  4  1  0
  4  5  1  0
  5  6  1  0
  6  7  1  0
  7  8  1  0
  8  9  1  0
  9 10  1  0
 10 11  1  0
 11 12  1  0
 12 13  1  0
 13 14  1  0
 14 15  1  0
 15 16  1  0
 11 17  1  0
 17 18  1  0
  8  5  1  0
 17  9  1  0
 18  6  1  0
 18  7  1  0
 18  8  1  0
 15 13  1  0
 16 13  1  0
  1 19  1  0
  1 20  1  0
  1 21  1  0
  3 22  1  0
  3 23  1  0
  4 24  1  0
  4 25  1  0
  5 26  1  0
  6 27  1  0
  7 28  1  0
  9 29  1  0
 10 30  1  0
 10 31  1  0
 11 32  1  0
 12 33  1  0
 12 34  1  0
 14 35  1  0
 14 36  1  0
 15 37  1  0
 16 38  1  0
 16 39  1  0
 17 40  1  0
M  END
