
     RDKit          2D

 63 64  0  0  0  0  0  0  0  0999 V2000
   20.9888  -18.1123   -4.5892 C   0  0  0  0  0  0  0  0  0  0  0  0
   19.8370  -18.7050   -5.3457 C   0  0  0  0  0  0  0  0  0  0  0  0
   18.6853  -19.2976   -6.1020 C   0  0  0  0  0  0  0  0  0  0  0  0
   17.5335  -19.8903   -6.8585 C   0  0  0  0  0  0  0  0  0  0  0  0
   16.3817  -20.4829   -7.6148 C   0  0  0  0  0  0  0  0  0  0  0  0
   15.2299  -21.0755   -8.3713 C   0  0  0  0  0  0  0  0  0  0  0  0
   14.0781  -21.6682   -9.1277 C   0  0  0  0  0  0  0  0  0  0  0  0
   15.9378  -20.8003   -9.6648 C   0  0  0  0  0  0  0  0  0  0  0  0
   16.6456  -20.5251  -10.9583 C   0  0  0  0  0  0  0  0  0  0  0  0
   17.3535  -20.2499  -12.2518 C   0  0  0  0  0  0  0  0  0  0  0  0
   18.0614  -19.9747  -13.5453 C   0  0  0  0  0  0  0  0  0  0  0  0
   18.6473  -20.0904  -11.5098 C   0  0  0  0  0  0  0  0  0  0  0  0
   19.9412  -19.9308  -10.7679 C   0  0  0  0  0  0  0  0  0  0  0  0
   19.2335  -20.2073   -9.4744 C   0  0  0  0  0  0  0  0  0  0  0  0
   20.5274  -20.0478   -8.7324 N   0  0  0  0  0  0  0  0  0  0  0  0
   21.2351  -19.7713  -10.0258 C   0  0  0  0  0  0  0  0  0  0  0  0
   16.8040  -20.1194   -5.5680 C   0  0  0  0  0  0  0  0  0  0  0  0
   17.8115  -19.5756   -4.5990 C   0  0  0  0  0  0  0  0  0  0  0  0
   15.7245  -20.5375   -4.6141 C   0  0  0  0  0  0  0  0  0  0  0  0
   15.5429  -20.7429   -6.0889 C   0  0  0  0  0  0  0  0  0  0  0  0
   14.1807  -21.3708   -6.0987 C   0  0  0  0  0  0  0  0  0  0  0  0
   15.8346  -20.7302   -7.5601 C   0  0  0  0  0  0  0  0  0  0  0  0
   22.1407  -17.5197   -3.8328 H   0  0  0  0  0  0  0  0  0  0  0  0
   21.6254  -17.6984   -5.8829 H   0  0  0  0  0  0  0  0  0  0  0  0
   20.3522  -18.5263   -3.2955 H   0  0  0  0  0  0  0  0  0  0  0  0
   19.7348  -19.5868   -4.1365 H   0  0  0  0  0  0  0  0  0  0  0  0
   20.2201  -17.6787   -6.3703 H   0  0  0  0  0  0  0  0  0  0  0  0
   18.9719  -20.3057   -5.0289 H   0  0  0  0  0  0  0  0  0  0  0  0
   18.6771  -18.1109   -7.0194 H   0  0  0  0  0  0  0  0  0  0  0  0
   18.3980  -19.5905   -8.0470 H   0  0  0  0  0  0  0  0  0  0  0  0
   16.9519  -19.6823   -8.7479 H   0  0  0  0  0  0  0  0  0  0  0  0
   15.6828  -21.3384   -6.6002 H   0  0  0  0  0  0  0  0  0  0  0  0
   14.2644  -21.4860   -7.2992 H   0  0  0  0  0  0  0  0  0  0  0  0
   12.9264  -22.2608   -9.8841 H   0  0  0  0  0  0  0  0  0  0  0  0
   14.0253  -22.8081   -8.1542 H   0  0  0  0  0  0  0  0  0  0  0  0
   13.9901  -20.6090  -10.1862 H   0  0  0  0  0  0  0  0  0  0  0  0
   17.3197  -20.6778   -9.0945 H   0  0  0  0  0  0  0  0  0  0  0  0
   14.7284  -20.8557  -10.5504 H   0  0  0  0  0  0  0  0  0  0  0  0
   16.0633  -21.6702  -11.7327 H   0  0  0  0  0  0  0  0  0  0  0  0
   15.8907  -21.7373  -11.4174 H   0  0  0  0  0  0  0  0  0  0  0  0
   16.0597  -20.4094  -12.9938 H   0  0  0  0  0  0  0  0  0  0  0  0
   18.7693  -19.6995  -14.8388 H   0  0  0  0  0  0  0  0  0  0  0  0
   16.8011  -20.2786  -14.2997 H   0  0  0  0  0  0  0  0  0  0  0  0
   19.3987  -19.6395  -12.9542 H   0  0  0  0  0  0  0  0  0  0  0  0
   17.7873  -20.3843  -10.3166 H   0  0  0  0  0  0  0  0  0  0  0  0
   19.5074  -19.7964  -12.7031 H   0  0  0  0  0  0  0  0  0  0  0  0
   20.6489  -19.6543  -12.0612 H   0  0  0  0  0  0  0  0  0  0  0  0
   18.6889  -20.4623   -8.1003 H   0  0  0  0  0  0  0  0  0  0  0  0
   17.8631  -20.3994  -10.0533 H   0  0  0  0  0  0  0  0  0  0  0  0
   21.1113  -20.0923   -7.3515 H   0  0  0  0  0  0  0  0  0  0  0  0
   21.9426  -19.4948  -11.3192 H   0  0  0  0  0  0  0  0  0  0  0  0
   22.5288  -19.6118   -9.2838 H   0  0  0  0  0  0  0  0  0  0  0  0
   18.6997  -19.0759   -3.4984 H   0  0  0  0  0  0  0  0  0  0  0  0
   18.9465  -19.1252   -5.4702 H   0  0  0  0  0  0  0  0  0  0  0  0
   17.0227  -19.8355   -3.3499 H   0  0  0  0  0  0  0  0  0  0  0  0
   16.2052  -20.2022   -3.2334 H   0  0  0  0  0  0  0  0  0  0  0  0
   14.4853  -21.0525   -3.9438 H   0  0  0  0  0  0  0  0  0  0  0  0
   12.8185  -21.9986   -6.1085 H   0  0  0  0  0  0  0  0  0  0  0  0
   13.9081  -21.6237   -7.5519 H   0  0  0  0  0  0  0  0  0  0  0  0
   13.9563  -21.3440   -4.6159 H   0  0  0  0  0  0  0  0  0  0  0  0
   16.4398  -20.5642   -8.9226 H   0  0  0  0  0  0  0  0  0  0  0  0
   14.5027  -21.3655   -7.8296 H   0  0  0  0  0  0  0  0  0  0  0  0
   17.1974  -20.1107   -7.6548 H   0  0  0  0  0  0  0  0  0  0  0  0
  1  2  1  0
  2  3  1  0
  3  4  1  0
  4  5  1  0
  5  6  1  0
  6  7  1  0
  6  8  1  0
  8  9  1  0
  9 10  1  0
 10 11  1  0
 10 12  1  0
 12 13  1  0
 13 14  1  0
 14 15  1  0
 15 16  1  0
  4 17  1  0
 17 18  1  0
 17 19  1  0
 19 20  1  0
 20 21  1  0
 20 22  1  0
 16 13  1  0
 20 17  1  0
  1 23  1  0
  1 24  1  0
  1 25  1  0
  2 26  1  0
  2 27  1  0
  3 28  1  0
  3 29  1  0
  4 30  1  0
  5 31  1  0
  5 32  1  0
  6 33  1  0
  7 34  1  0
  7 35  1  0
  7 36  1  0
  8 37  1  0
  8 38  1  0
  9 39  1  0
  9 40  1  0
 10 41  1  0
 11 42  1  0
 11 43  1  0
 11 44  1  0
 12 45  1  0
 12 46  1  0
 13 47  1  0
 14 48  1  0
 14 49  1  0
 15 50  1  0
 16 51  1  0
 16 52  1  0
 18 53  1  0
 18 54  1  0
 18 55  1  0
 19 56  1  0
 19 57  1  0
 21 58  1  0
 21 59  1  0
 21 60  1  0
 22 61  1  0
 22 62  1  0
 22 63  1  0
M  END
