
     RDKit          2D

 65 74  0  0  0  0  0  0  0  0999 V2000
   25.8056  -20.8926  -19.3481 C   0  0  0  0  0  0  0  0  0  0  0  0
   24.7064  -20.7591  -18.3362 C   0  0  0  0  0  0  0  0  0  0  0  0
   23.6072  -20.6256  -17.3243 C   0  0  0  0  0  0  0  0  0  0  0  0
   22.5079  -20.4922  -16.3124 C   0  0  0  0  0  0  0  0  0  0  0  0
   22.1853  -19.2333  -17.0614 C   0  0  0  0  0  0  0  0  0  0  0  0
   21.0022  -18.5908  -16.4000 C   0  0  0  0  0  0  0  0  0  0  0  0
   19.8543  -17.7305  -15.9615 C   0  0  0  0  0  0  0  0  0  0  0  0
   20.5936  -19.4526  -15.2423 C   0  0  0  0  0  0  0  0  0  0  0  0
   21.5243  -20.6277  -15.1882 C   0  0  0  0  0  0  0  0  0  0  0  0
   22.6356  -21.5834  -15.5074 C   0  0  0  0  0  0  0  0  0  0  0  0
   22.5904  -22.6983  -14.5050 C   0  0  0  0  0  0  0  0  0  0  0  0
   21.4512  -22.4318  -13.5662 C   0  0  0  0  0  0  0  0  0  0  0  0
   20.1346  -19.0071  -15.1539 C   0  0  0  0  0  0  0  0  0  0  0  0
   19.8617  -19.9770  -14.0426 C   0  0  0  0  0  0  0  0  0  0  0  0
   18.6861  -19.5168  -13.2326 C   0  0  0  0  0  0  0  0  0  0  0  0
   18.5459  -18.3148  -14.1189 C   0  0  0  0  0  0  0  0  0  0  0  0
   17.3703  -17.8546  -13.3088 As  0  0  0  0  0  3  0  0  0  0  0  0
   17.5104  -19.0566  -12.4225 C   0  0  0  0  0  0  0  0  0  0  0  0
   17.6506  -20.2587  -11.5363 C   0  0  0  0  0  0  0  0  0  0  0  0
   18.8262  -20.7188  -12.3463 C   0  0  0  0  0  0  0  0  0  0  0  0
   17.6582  -21.4016  -10.5649 C   0  0  0  0  0  0  0  0  0  0  0  0
   16.7373  -21.6515   -9.4075 O   0  0  0  0  0  0  0  0  0  0  0  0
   15.5814  -20.8202   -8.9356 C   0  0  0  0  0  0  0  0  0  0  0  0
   15.0608  -19.5336   -9.5046 O   0  0  0  0  0  0  0  0  0  0  0  0
   15.5676  -18.7606  -10.6860 C   0  0  0  0  0  0  0  0  0  0  0  0
   14.4117  -17.9293  -10.2142 C   0  0  0  0  0  0  0  0  0  0  0  0
   16.7202  -19.0833  -11.5902 C   0  0  0  0  0  0  0  0  0  0  0  0
   16.5382  -20.4655  -10.2196 C   0  0  0  0  0  0  0  0  0  0  0  0
   16.1544  -21.3488   -9.0697 O   0  0  0  0  0  0  0  0  0  0  0  0
   20.7923  -21.1521  -13.9885 C   0  0  0  0  0  0  0  0  0  0  0  0
   26.9048  -21.0260  -20.3600 H   0  0  0  0  0  0  0  0  0  0  0  0
   26.2383  -22.1785  -18.7085 H   0  0  0  0  0  0  0  0  0  0  0  0
   25.3729  -19.6067  -19.9878 H   0  0  0  0  0  0  0  0  0  0  0  0
   25.1472  -22.0384  -17.6886 H   0  0  0  0  0  0  0  0  0  0  0  0
   24.2656  -19.4799  -18.9837 H   0  0  0  0  0  0  0  0  0  0  0  0
   23.3049  -19.3712  -18.0891 H   0  0  0  0  0  0  0  0  0  0  0  0
   24.1774  -21.9127  -16.8062 H   0  0  0  0  0  0  0  0  0  0  0  0
   23.2975  -21.7406  -16.0508 H   0  0  0  0  0  0  0  0  0  0  0  0
   22.7984  -18.5696  -18.2587 H   0  0  0  0  0  0  0  0  0  0  0  0
   21.1708  -17.5491  -17.4661 H   0  0  0  0  0  0  0  0  0  0  0  0
   18.7503  -16.7600  -15.6626 H   0  0  0  0  0  0  0  0  0  0  0  0
   20.2822  -16.8855  -17.1247 H   0  0  0  0  0  0  0  0  0  0  0  0
   20.0024  -16.6758  -17.0178 H   0  0  0  0  0  0  0  0  0  0  0  0
   19.7304  -18.2362  -15.4009 H   0  0  0  0  0  0  0  0  0  0  0  0
   23.1948  -20.8630  -16.6982 H   0  0  0  0  0  0  0  0  0  0  0  0
   23.7782  -22.4603  -15.9262 H   0  0  0  0  0  0  0  0  0  0  0  0
   23.7718  -23.2207  -15.2675 H   0  0  0  0  0  0  0  0  0  0  0  0
   22.7923  -23.9225  -13.6620 H   0  0  0  0  0  0  0  0  0  0  0  0
   21.0427  -23.2936  -12.4084 H   0  0  0  0  0  0  0  0  0  0  0  0
   19.0923  -17.9392  -15.0017 H   0  0  0  0  0  0  0  0  0  0  0  0
   18.2635  -17.0657  -14.8998 H   0  0  0  0  0  0  0  0  0  0  0  0
   19.5932  -18.3135  -15.1927 H   0  0  0  0  0  0  0  0  0  0  0  0
   16.3358  -18.3192  -11.8511 H   0  0  0  0  0  0  0  0  0  0  0  0
   20.0018  -21.1790  -13.1563 H   0  0  0  0  0  0  0  0  0  0  0  0
   19.1086  -21.9680  -11.5654 H   0  0  0  0  0  0  0  0  0  0  0  0
   18.6585  -22.5173  -10.6336 H   0  0  0  0  0  0  0  0  0  0  0  0
   15.5890  -21.9631   -7.9643 H   0  0  0  0  0  0  0  0  0  0  0  0
   14.4044  -20.3479   -8.1345 H   0  0  0  0  0  0  0  0  0  0  0  0
   15.5600  -17.6177  -11.6574 H   0  0  0  0  0  0  0  0  0  0  0  0
   13.2558  -17.0979   -9.7423 H   0  0  0  0  0  0  0  0  0  0  0  0
   14.6616  -16.9517  -11.3242 H   0  0  0  0  0  0  0  0  0  0  0  0
   14.1618  -18.9067   -9.1042 H   0  0  0  0  0  0  0  0  0  0  0  0
   15.3586  -19.7709   -9.6063 H   0  0  0  0  0  0  0  0  0  0  0  0
   15.0289  -21.1328   -8.1018 H   0  0  0  0  0  0  0  0  0  0  0  0
   21.7148  -20.9055  -15.1452 H   0  0  0  0  0  0  0  0  0  0  0  0
  1  2  1  0
  2  3  1  0
  3  4  1  0
  4  5  1  0
  5  6  1  0
  6  7  1  0
  6  8  1  0
  8  9  1  0
  9 10  1  0
 10 11  1  0
 11 12  1  0
 12 13  1  0
 13 14  1  0
 14 15  1  0
 15 16  1  0
 16 17  1  0
 17 18  1  0
 18 19  1  0
 19 20  1  0
 19 21  1  0
 21 22  1  0
 22 23  1  0
 23 24  1  0
 24 25  1  0
 25 26  1  0
 25 27  1  0
 27 28  1  0
 28 29  1  0
 14 30  1  0
  9  4  1  0
 30 12  1  0
 13  5  1  0
 18 15  1  0
 27 19  1  0
 14  8  1  0
 20 15  1  0
 28 21  1  0
 30  9  1  0
 27 17  1  0
  1 31  1  0
  1 32  1  0
  1 33  1  0
  2 34  1  0
  2 35  1  0
  3 36  1  0
  3 37  1  0
  4 38  1  0
  5 39  1  0
  6 40  1  0
  7 41  1  0
  7 42  1  0
  7 43  1  0
  8 44  1  0
 10 45  1  0
 10 46  1  0
 11 47  1  0
 11 48  1  0
 12 49  1  0
 13 50  1  0
 16 51  1  0
 16 52  1  0
 18 53  1  0
 20 54  1  0
 20 55  1  0
 21 56  1  0
 23 57  1  0
 23 58  1  0
 25 59  1  0
 26 60  1  0
 26 61  1  0
 26 62  1  0
 28 63  1  0
 29 64  1  0
 30 65  1  0
M  END
