
     RDKit          2D

112117  0  0  0  0  0  0  0  0999 V2000
    9.0557   23.6763    4.4890 C   0  0  0  0  0  0  0  0  0  0  0  0
    9.6957   24.5566    3.4568 C   0  0  0  0  0  0  0  0  0  0  0  0
   10.3357   25.4369    2.4246 C   0  0  0  0  0  0  0  0  0  0  0  0
    8.4115   25.3175    3.3095 C   0  0  0  0  0  0  0  0  0  0  0  0
    7.1273   26.0785    3.1621 C   0  0  0  0  0  0  0  0  0  0  0  0
    5.8431   26.8394    3.0148 N   0  0  0  0  0  0  0  0  0  0  0  0
    5.8408   28.1862    2.3542 C   0  0  0  0  0  0  0  0  0  0  0  0
    6.7097   29.2161    1.6956 C   0  0  0  0  0  0  0  0  0  0  0  0
    6.7075   30.5628    1.0350 O   0  0  0  0  0  0  0  0  0  0  0  0
    5.8348   31.7118    0.6247 C   0  0  0  0  0  0  0  0  0  0  0  0
    4.4250   32.2241    0.6215 C   0  0  0  0  0  0  0  0  0  0  0  0
    2.8872   31.5492    1.2236 C   0  0  0  0  0  0  0  0  0  0  0  0
    1.4056   31.6504    1.4348 C   0  0  0  0  0  0  0  0  0  0  0  0
    0.9500   30.4009    2.1284 C   0  0  0  0  0  0  0  0  0  0  0  0
    2.1499   29.5275    2.3458 C   0  0  0  0  0  0  0  0  0  0  0  0
    3.3472   30.2372    1.7866 C   0  0  0  0  0  0  0  0  0  0  0  0
    3.0226   28.3785    2.7561 C   0  0  0  0  0  0  0  0  0  0  0  0
    1.6142   28.0585    3.1612 C   0  0  0  0  0  0  0  0  0  0  0  0
    0.2058   27.7386    3.5662 C   0  0  0  0  0  0  0  0  0  0  0  0
   -1.2026   27.4187    3.9713 C   0  0  0  0  0  0  0  0  0  0  0  0
   -2.6109   27.0987    4.3764 N   0  0  0  0  0  0  0  0  0  0  0  0
    0.6648   26.4238    4.1235 C   0  0  0  0  0  0  0  0  0  0  0  0
   -0.7366   25.8966    4.0338 Br  0  0  0  0  0  0  0  0  0  0  0  0
    1.1238   25.1090    4.6808 C   0  0  0  0  0  0  0  0  0  0  0  0
    1.5828   23.7942    5.2381 C   0  0  0  0  0  0  0  0  0  0  0  0
    0.1161   23.7074    5.5403 C   0  0  0  0  0  0  0  0  0  0  0  0
   -1.3331   24.0877    5.6125 C   0  0  0  0  0  0  0  0  0  0  0  0
   -2.7823   24.4681    5.6846 C   0  0  0  0  0  0  0  0  0  0  0  0
   -4.2315   24.8484    5.7568 C   0  0  0  0  0  0  0  0  0  0  0  0
   -5.4041   25.7545    5.5245 C   0  0  0  0  0  0  0  0  0  0  0  0
   -6.8428   25.5337    5.8868 N   0  0  0  0  0  0  0  0  0  0  0  0
   -7.4643   24.3522    6.5709 C   0  0  0  0  0  0  0  0  0  0  0  0
   -6.8005   23.0998    7.0615 C   0  0  0  0  0  0  0  0  0  0  0  0
   -5.3514   22.7195    6.9894 C   0  0  0  0  0  0  0  0  0  0  0  0
   -4.9989   21.3844    7.5754 Cl  0  0  0  0  0  0  0  0  0  0  0  0
   -4.2080   23.4977    6.4087 C   0  0  0  0  0  0  0  0  0  0  0  0
   -0.4375   22.4945    6.2276 C   0  0  0  0  0  0  0  0  0  0  0  0
    0.4754   21.3685    6.6127 C   0  0  0  0  0  0  0  0  0  0  0  0
    0.6829   20.0180    7.2319 C   0  0  0  0  0  0  0  0  0  0  0  0
    2.1495   20.1048    6.9298 C   0  0  0  0  0  0  0  0  0  0  0  0
    3.4088   21.5420    6.0084 C   0  0  0  0  0  0  0  0  0  0  0  0
    2.4958   22.6680    5.6233 C   0  0  0  0  0  0  0  0  0  0  0  0
    3.9625   22.7548    5.3211 C   0  0  0  0  0  0  0  0  0  0  0  0
    1.9421   21.4552    6.3106 C   0  0  0  0  0  0  0  0  0  0  0  0
    4.4324   27.8662    2.7593 C   0  0  0  0  0  0  0  0  0  0  0  0
    8.4157   22.7960    5.5212 H   0  0  0  0  0  0  0  0  0  0  0  0
    7.9336   24.6612    4.6332 H   0  0  0  0  0  0  0  0  0  0  0  0
    9.6672   23.0357    4.4787 H   0  0  0  0  0  0  0  0  0  0  0  0
   10.9799   23.7956    3.6041 H   0  0  0  0  0  0  0  0  0  0  0  0
   10.9757   26.3172    1.3924 H   0  0  0  0  0  0  0  0  0  0  0  0
   11.3225   24.3516    2.1109 H   0  0  0  0  0  0  0  0  0  0  0  0
    9.8035   26.1363    2.5342 H   0  0  0  0  0  0  0  0  0  0  0  0
    8.6239   25.7443    2.5630 H   0  0  0  0  0  0  0  0  0  0  0  0
    8.0142   25.0003    4.0347 H   0  0  0  0  0  0  0  0  0  0  0  0
    7.9936   27.0310    2.3926 H   0  0  0  0  0  0  0  0  0  0  0  0
    6.4122   25.0253    3.9555 H   0  0  0  0  0  0  0  0  0  0  0  0
    4.5611   26.2536    3.5281 H   0  0  0  0  0  0  0  0  0  0  0  0
    6.8685   27.8126    2.3565 H   0  0  0  0  0  0  0  0  0  0  0  0
    7.4476   28.4478    1.9427 H   0  0  0  0  0  0  0  0  0  0  0  0
    8.1181   29.5361    1.2905 H   0  0  0  0  0  0  0  0  0  0  0  0
    7.2432   32.0317    0.2196 H   0  0  0  0  0  0  0  0  0  0  0  0
    6.0133   33.0361   -0.0568 H   0  0  0  0  0  0  0  0  0  0  0  0
    5.1414   33.3530   -0.0588 H   0  0  0  0  0  0  0  0  0  0  0  0
    3.7048   33.4511    0.1461 H   0  0  0  0  0  0  0  0  0  0  0  0
    3.7044   32.2911    0.7155 H   0  0  0  0  0  0  0  0  0  0  0  0
    1.5583   32.9791    0.7558 H   0  0  0  0  0  0  0  0  0  0  0  0
   -0.0441   32.0293    1.5042 H   0  0  0  0  0  0  0  0  0  0  0  0
   -0.4044   31.0410    2.0527 H   0  0  0  0  0  0  0  0  0  0  0  0
    0.0601   29.3863    2.7832 H   0  0  0  0  0  0  0  0  0  0  0  0
    1.7936   28.2453    3.0379 H   0  0  0  0  0  0  0  0  0  0  0  0
    4.0900   29.0203    2.2531 H   0  0  0  0  0  0  0  0  0  0  0  0
    4.6998   30.6925    1.3249 H   0  0  0  0  0  0  0  0  0  0  0  0
    2.8443   27.0542    3.4375 H   0  0  0  0  0  0  0  0  0  0  0  0
    2.2428   26.7965    3.6730 H   0  0  0  0  0  0  0  0  0  0  0  0
    1.1538   29.3694    2.5957 H   0  0  0  0  0  0  0  0  0  0  0  0
   -0.4214   29.0046    3.0624 H   0  0  0  0  0  0  0  0  0  0  0  0
   -0.7412   26.1105    4.5422 H   0  0  0  0  0  0  0  0  0  0  0  0
   -1.6639   28.7269    3.4004 H   0  0  0  0  0  0  0  0  0  0  0  0
   -3.7135   28.0750    4.0914 H   0  0  0  0  0  0  0  0  0  0  0  0
   -2.9168   25.8025    5.0665 H   0  0  0  0  0  0  0  0  0  0  0  0
    2.1117   26.7868    4.2805 H   0  0  0  0  0  0  0  0  0  0  0  0
   -0.3326   24.9447    5.0004 H   0  0  0  0  0  0  0  0  0  0  0  0
    2.5347   25.4361    4.2904 H   0  0  0  0  0  0  0  0  0  0  0  0
    2.7954   24.4846    4.6878 H   0  0  0  0  0  0  0  0  0  0  0  0
   -0.0143   25.0605    4.9061 H   0  0  0  0  0  0  0  0  0  0  0  0
   -1.8163   22.8393    6.2892 H   0  0  0  0  0  0  0  0  0  0  0  0
   -1.0242   25.3922    4.9394 H   0  0  0  0  0  0  0  0  0  0  0  0
   -2.9096   23.1341    6.3587 H   0  0  0  0  0  0  0  0  0  0  0  0
   -2.3017   25.7093    4.9929 H   0  0  0  0  0  0  0  0  0  0  0  0
   -3.6100   26.0299    5.0727 H   0  0  0  0  0  0  0  0  0  0  0  0
   -4.3841   26.6618    4.9029 H   0  0  0  0  0  0  0  0  0  0  0  0
   -6.0679   27.0069    5.0338 H   0  0  0  0  0  0  0  0  0  0  0  0
   -7.7846   26.6407    5.5160 H   0  0  0  0  0  0  0  0  0  0  0  0
   -8.6369   25.2583    6.3386 H   0  0  0  0  0  0  0  0  0  0  0  0
   -8.6076   23.5740    7.1515 H   0  0  0  0  0  0  0  0  0  0  0  0
   -7.7057   22.0948    7.7102 H   0  0  0  0  0  0  0  0  0  0  0  0
   -3.5443   22.2453    6.8994 H   0  0  0  0  0  0  0  0  0  0  0  0
   -2.7370   23.5541    6.1205 H   0  0  0  0  0  0  0  0  0  0  0  0
   -1.5547   21.6863    6.8182 H   0  0  0  0  0  0  0  0  0  0  0  0
   -1.7807   23.1572    6.1438 H   0  0  0  0  0  0  0  0  0  0  0  0
   -0.8068   20.7821    7.1248 H   0  0  0  0  0  0  0  0  0  0  0  0
    0.8903   18.6676    7.8511 H   0  0  0  0  0  0  0  0  0  0  0  0
   -0.7838   19.9312    7.5341 H   0  0  0  0  0  0  0  0  0  0  0  0
    3.3333   19.2113    7.1539 H   0  0  0  0  0  0  0  0  0  0  0  0
    4.7615   21.9976    5.5473 H   0  0  0  0  0  0  0  0  0  0  0  0
    4.3217   20.4159    6.3936 H   0  0  0  0  0  0  0  0  0  0  0  0
    5.4291   22.8416    5.0190 H   0  0  0  0  0  0  0  0  0  0  0  0
    3.8293   23.1322    3.8755 H   0  0  0  0  0  0  0  0  0  0  0  0
    4.6222   22.4172    6.6252 H   0  0  0  0  0  0  0  0  0  0  0  0
    0.7583   22.3487    6.0864 H   0  0  0  0  0  0  0  0  0  0  0  0
    3.7161   26.7373    3.4395 H   0  0  0  0  0  0  0  0  0  0  0  0
    4.9894   26.5796    3.2926 H   0  0  0  0  0  0  0  0  0  0  0  0
  1  2  1  0
  2  3  1  0
  2  4  1  0
  4  5  1  0
  5  6  1  0
  6  7  1  0
  7  8  1  0
  8  9  1  0
  9 10  1  0
 10 11  1  0
 11 12  1  0
 12 13  1  0
 13 14  1  0
 14 15  1  0
 15 16  1  0
 15 17  1  0
 17 18  1  0
 18 19  1  0
 19 20  1  0
 20 21  1  0
 19 22  1  0
 22 23  1  0
 22 24  1  0
 24 25  1  0
 25 26  1  0
 26 27  1  0
 27 28  1  0
 28 29  1  0
 29 30  1  0
 30 31  1  0
 31 32  1  0
 32 33  1  0
 33 34  2  0
 34 35  1  0
 34 36  1  0
 26 37  1  0
 37 38  1  0
 38 39  1  0
 39 40  1  0
 40 41  1  0
 41 42  1  0
 42 43  1  0
 42 44  1  0
 17 45  1  0
 45  7  1  0
 16 12  1  0
 42 25  1  0
 36 29  1  0
 44 38  1  0
 44 40  1  0
  1 46  1  0
  1 47  1  0
  1 48  1  0
  2 49  1  0
  3 50  1  0
  3 51  1  0
  3 52  1  0
  4 53  1  0
  4 54  1  0
  5 55  1  0
  5 56  1  0
  6 57  1  0
  7 58  1  0
  8 59  1  0
  8 60  1  0
 10 61  1  0
 10 62  1  0
 11 63  1  0
 11 64  1  0
 12 65  1  0
 13 66  1  0
 13 67  1  0
 14 68  1  0
 14 69  1  0
 15 70  1  0
 16 71  1  0
 16 72  1  0
 17 73  1  0
 18 74  1  0
 18 75  1  0
 19 76  1  0
 20 77  1  0
 20 78  1  0
 21 79  1  0
 21 80  1  0
 22 81  1  0
 24 82  1  0
 24 83  1  0
 25 84  1  0
 26 85  1  0
 27 86  1  0
 27 87  1  0
 28 88  1  0
 28 89  1  0
 29 90  1  0
 30 91  1  0
 30 92  1  0
 31 93  1  0
 32 94  1  0
 32 95  1  0
 33 96  1  0
 36 97  1  0
 36 98  1  0
 37 99  1  0
 37100  1  0
 38101  1  0
 39102  1  0
 39103  1  0
 40104  1  0
 41105  1  0
 41106  1  0
 43107  1  0
 43108  1  0
 43109  1  0
 44110  1  0
 45111  1  0
 45112  1  0
M  END
