
     RDKit          2D

 53 56  0  0  0  0  0  0  0  0999 V2000
   -1.2531   29.3846   -0.7152 C   0  0  0  0  0  0  0  0  0  0  0  0
   -0.7805   29.7275    0.6664 C   0  0  0  0  0  0  0  0  0  0  0  0
   -0.5327   28.6374    1.6664 C   0  0  0  0  0  0  0  0  0  0  0  0
   -0.0975   27.2788    1.2025 C   0  0  0  0  0  0  0  0  0  0  0  0
   -0.2848   27.5472    2.6665 C   0  0  0  0  0  0  0  0  0  0  0  0
   -0.0369   26.4570    3.6664 N   0  0  0  0  0  0  0  0  0  0  0  0
   -0.2233   26.7255    5.1304 C   0  0  0  0  0  0  0  0  0  0  0  0
    0.3973   25.0982    3.2025 C   0  0  0  0  0  0  0  0  0  0  0  0
    0.8316   23.7394    2.7386 C   0  0  0  0  0  0  0  0  0  0  0  0
    1.2658   22.3807    2.2746 C   0  0  0  0  0  0  0  0  0  0  0  0
    0.9603   23.2935    4.1650 C   0  0  0  0  0  0  0  0  0  0  0  0
    1.2253   22.4655    3.9957 I   0  0  0  0  0  0  0  0  0  0  0  0
    1.0891   22.8477    5.5914 C   0  0  0  0  0  0  0  0  0  0  0  0
    1.2179   22.4018    7.0177 C   0  0  0  0  0  0  0  0  0  0  0  0
    1.6253   21.1418    6.3132 C   0  0  0  0  0  0  0  0  0  0  0  0
    2.0045   19.9273    7.1077 O   0  0  0  0  0  0  0  0  0  0  0  0
    1.9762   19.9728    8.6067 C   0  0  0  0  0  0  0  0  0  0  0  0
    1.5688   21.2328    9.3113 C   0  0  0  0  0  0  0  0  0  0  0  0
    1.1613   22.4927   10.0158 O   0  0  0  0  0  0  0  0  0  0  0  0
    1.1896   22.4473    8.5168 C   0  0  0  0  0  0  0  0  0  0  0  0
   -0.7199   28.9056    3.1303 C   0  0  0  0  0  0  0  0  0  0  0  0
   -0.7611   28.6742    4.6118 C   0  0  0  0  0  0  0  0  0  0  0  0
   -1.1579   29.7884    5.5342 O   0  0  0  0  0  0  0  0  0  0  0  0
   -1.1408   30.3445    3.0796 C   0  0  0  0  0  0  0  0  0  0  0  0
   -1.5617   31.7833    3.0290 O   0  0  0  0  0  0  0  0  0  0  0  0
   -1.5010   30.4748   -1.7153 H   0  0  0  0  0  0  0  0  0  0  0  0
   -1.4779   27.9515   -1.0969 H   0  0  0  0  0  0  0  0  0  0  0  0
   -0.6081   31.2026    0.8776 H   0  0  0  0  0  0  0  0  0  0  0  0
   -0.0564   27.5103   -0.2789 H   0  0  0  0  0  0  0  0  0  0  0  0
    0.2912   25.9915    1.0837 H   0  0  0  0  0  0  0  0  0  0  0  0
   -0.4096   26.9940    6.5943 H   0  0  0  0  0  0  0  0  0  0  0  0
   -0.6576   28.1417    5.3663 H   0  0  0  0  0  0  0  0  0  0  0  0
    0.1704   25.3115    5.4399 H   0  0  0  0  0  0  0  0  0  0  0  0
    0.4141   25.3732    1.8809 H   0  0  0  0  0  0  0  0  0  0  0  0
    0.3863   24.9178    4.0696 H   0  0  0  0  0  0  0  0  0  0  0  0
    0.7028   24.1853    1.3121 H   0  0  0  0  0  0  0  0  0  0  0  0
    1.7000   21.0219    1.8107 H   0  0  0  0  0  0  0  0  0  0  0  0
    1.2297   22.8549    0.8521 H   0  0  0  0  0  0  0  0  0  0  0  0
    1.3182   22.0050    3.0750 H   0  0  0  0  0  0  0  0  0  0  0  0
    0.7139   24.0574    4.5395 H   0  0  0  0  0  0  0  0  0  0  0  0
    1.3630   21.9990    5.1752 H   0  0  0  0  0  0  0  0  0  0  0  0
    0.6527   24.2057    6.0553 H   0  0  0  0  0  0  0  0  0  0  0  0
    0.7657   23.8166    7.2269 H   0  0  0  0  0  0  0  0  0  0  0  0
    1.9389   20.1886    5.1982 H   0  0  0  0  0  0  0  0  0  0  0  0
    1.4786   21.6273    5.4698 H   0  0  0  0  0  0  0  0  0  0  0  0
    2.1050   19.5268   10.0331 H   0  0  0  0  0  0  0  0  0  0  0  0
    2.4284   18.5579    8.3976 H   0  0  0  0  0  0  0  0  0  0  0  0
    1.7713   20.5579   10.6354 H   0  0  0  0  0  0  0  0  0  0  0  0
    0.7354   23.8759    8.4649 H   0  0  0  0  0  0  0  0  0  0  0  0
   -0.5196   27.6006    5.6311 H   0  0  0  0  0  0  0  0  0  0  0  0
   -1.6541   30.2438    4.4855 H   0  0  0  0  0  0  0  0  0  0  0  0
   -0.6827   30.6197    1.6782 H   0  0  0  0  0  0  0  0  0  0  0  0
   -1.8725   32.5190    4.2988 H   0  0  0  0  0  0  0  0  0  0  0  0
  1  2  2  3
  2  3  1  0
  3  4  1  0
  4  5  1  0
  5  6  1  0
  6  7  1  0
  6  8  1  0
  8  9  1  0
  9 10  1  0
  9 11  1  0
 11 12  1  0
 11 13  1  0
 13 14  1  0
 14 15  1  0
 15 16  1  0
 16 17  1  0
 17 18  1  0
 18 19  1  0
 19 20  1  0
  5 21  1  0
 21 22  1  0
 22 23  2  0
 21 24  1  0
 24 25  1  0
  5  3  1  0
 20 14  1  0
 21  3  1  0
 20 18  1  0
  1 26  1  0
  1 27  1  0
  2 28  1  0
  4 29  1  0
  4 30  1  0
  7 31  1  0
  7 32  1  0
  7 33  1  0
  8 34  1  0
  8 35  1  0
  9 36  1  0
 10 37  1  0
 10 38  1  0
 10 39  1  0
 11 40  1  0
 13 41  1  0
 13 42  1  0
 14 43  1  0
 15 44  1  0
 15 45  1  0
 17 46  1  0
 17 47  1  0
 18 48  1  0
 20 49  1  0
 22 50  1  0
 24 51  1  0
 24 52  1  0
 25 53  1  0
M  END
