
     RDKit          2D

 40 42  0  0  0  0  0  0  0  0999 V2000
   -4.1496   20.0929    5.7865 C   0  0  0  0  0  0  0  0  0  0  0  0
   -3.8167   21.4651    5.2800 C   0  0  0  0  0  0  0  0  0  0  0  0
   -3.4839   22.8371    4.7735 N   0  0  0  0  0  0  0  0  0  0  0  0
   -2.5933   22.9994    3.5774 C   0  0  0  0  0  0  0  0  0  0  0  0
   -2.8155   24.4649    3.8074 C   0  0  0  0  0  0  0  0  0  0  0  0
   -2.0547   25.2195    2.7578 O   0  0  0  0  0  0  0  0  0  0  0  0
   -1.3623   24.2204    1.8790 C   0  0  0  0  0  0  0  0  0  0  0  0
   -0.5260   23.6157    0.7904 O   0  0  0  0  0  0  0  0  0  0  0  0
   -0.8589   22.2435    1.2970 C   0  0  0  0  0  0  0  0  0  0  0  0
   -1.6952   22.8483    2.3856 C   0  0  0  0  0  0  0  0  0  0  0  0
   -1.8385   23.3552    2.5539 C   0  0  0  0  0  0  0  0  0  0  0  0
   -1.6469   20.8416    2.4123 C   0  0  0  0  0  0  0  0  0  0  0  0
   -2.2911   19.8342    3.3178 C   0  0  0  0  0  0  0  0  0  0  0  0
   -1.0184   19.7312    1.6239 C   0  0  0  0  0  0  0  0  0  0  0  0
   -0.3898   18.6206    0.8354 Br  0  0  0  0  0  0  0  0  0  0  0  0
   -1.4126   23.4504    1.9812 C   0  0  0  0  0  0  0  0  0  0  0  0
   -1.6721   24.0412    2.3007 C   0  0  0  0  0  0  0  0  0  0  0  0
    0.4265   24.2315   -0.5089 O   0  0  0  0  0  0  0  0  0  0  0  0
   -4.4824   18.7208    6.2930 H   0  0  0  0  0  0  0  0  0  0  0  0
   -4.9832   20.6978    6.8771 H   0  0  0  0  0  0  0  0  0  0  0  0
   -3.3628   19.3254    4.7658 H   0  0  0  0  0  0  0  0  0  0  0  0
   -3.6529   21.0922    3.8363 H   0  0  0  0  0  0  0  0  0  0  0  0
   -3.9410   22.0091    6.6723 H   0  0  0  0  0  0  0  0  0  0  0  0
   -4.1236   23.9299    5.5776 H   0  0  0  0  0  0  0  0  0  0  0  0
   -2.7759   21.5432    3.8873 H   0  0  0  0  0  0  0  0  0  0  0  0
   -3.2142   25.8325    4.2775 H   0  0  0  0  0  0  0  0  0  0  0  0
   -3.6914   24.1733    4.9897 H   0  0  0  0  0  0  0  0  0  0  0  0
   -0.9795   20.7659    1.5250 H   0  0  0  0  0  0  0  0  0  0  0  0
   -0.0695   21.4761    0.2782 H   0  0  0  0  0  0  0  0  0  0  0  0
   -0.3630   20.7564    0.7026 H   0  0  0  0  0  0  0  0  0  0  0  0
   -2.3493   21.8211    3.3053 H   0  0  0  0  0  0  0  0  0  0  0  0
   -2.8538   18.6988    4.1205 H   0  0  0  0  0  0  0  0  0  0  0  0
   -1.7458   18.6091    2.6456 H   0  0  0  0  0  0  0  0  0  0  0  0
   -2.9196   20.9447    4.1063 H   0  0  0  0  0  0  0  0  0  0  0  0
   -1.5835   18.5957    2.4247 H   0  0  0  0  0  0  0  0  0  0  0  0
   -0.2999   20.5958    0.6308 H   0  0  0  0  0  0  0  0  0  0  0  0
    0.2522   21.3214   -0.1441 H   0  0  0  0  0  0  0  0  0  0  0  0
    0.6023   23.0724   -0.6908 H   0  0  0  0  0  0  0  0  0  0  0  0
   -0.5002   25.5686    0.6672 H   0  0  0  0  0  0  0  0  0  0  0  0
    0.7593   25.6037   -1.0154 H   0  0  0  0  0  0  0  0  0  0  0  0
  1  2  1  0
  2  3  1  0
  3  4  1  0
  4  5  1  0
  5  6  1  0
  6  7  1  0
  7  8  1  0
  8  9  1  0
  9 10  1  0
 10 11  1  0
 11 12  1  0
 12 13  1  0
 12 14  1  0
 14 15  1  0
 11 16  1  0
 16 17  1  0
 17 18  1  0
 10  4  1  0
 10  7  1  0
 17  7  1  0
  1 19  1  0
  1 20  1  0
  1 21  1  0
  2 22  1  0
  2 23  1  0
  3 24  1  0
  4 25  1  0
  5 26  1  0
  5 27  1  0
  9 28  1  0
  9 29  1  0
 11 30  1  0
 12 31  1  0
 13 32  1  0
 13 33  1  0
 13 34  1  0
 14 35  1  0
 14 36  1  0
 16 37  1  0
 16 38  1  0
 17 39  1  0
 18 40  1  0
M  END
