
     RDKit          2D

101109  0  0  0  0  0  0  0  0999 V2000
   -6.1534   33.9168    9.3537 C   0  0  0  0  0  0  0  0  0  0  0  0
   -7.3709   33.2855    9.9614 C   0  0  0  0  0  0  0  0  0  0  0  0
   -8.3744   34.1344   10.6840 C   0  0  0  0  0  0  0  0  0  0  0  0
   -9.3780   34.9833   11.4067 C   0  0  0  0  0  0  0  0  0  0  0  0
   -7.5483   35.3535   10.3990 C   0  0  0  0  0  0  0  0  0  0  0  0
   -6.7222   36.5728   10.1140 C   0  0  0  0  0  0  0  0  0  0  0  0
   -5.8961   37.7919    9.8290 C   0  0  0  0  0  0  0  0  0  0  0  0
   -5.0701   39.0110    9.5441 C   0  0  0  0  0  0  0  0  0  0  0  0
   -4.2440   40.2303    9.2591 C   0  0  0  0  0  0  0  0  0  0  0  0
   -3.4179   41.4494    8.9741 C   0  0  0  0  0  0  0  0  0  0  0  0
   -3.2520   39.3846    8.5168 C   0  0  0  0  0  0  0  0  0  0  0  0
   -2.2601   38.5391    7.7745 O   0  0  0  0  0  0  0  0  0  0  0  0
   -2.4769   37.0597    7.6544 C   0  0  0  0  0  0  0  0  0  0  0  0
   -2.6937   35.5803    7.5342 P   0  0  0  0  0  0  0  0  0  0  0  0
   -3.4665   35.0274    6.3736 O   0  0  0  0  0  0  0  0  0  0  0  0
   -4.9533   34.8568    6.4755 O   0  0  0  0  0  0  0  0  0  0  0  0
   -7.5849   31.8053    9.8463 C   0  0  0  0  0  0  0  0  0  0  0  0
   -8.8848   31.6720   10.5827 C   0  0  0  0  0  0  0  0  0  0  0  0
  -10.1848   31.5387   11.3191 O   0  0  0  0  0  0  0  0  0  0  0  0
  -10.8244   30.1908   11.4737 C   0  0  0  0  0  0  0  0  0  0  0  0
  -12.0935   29.7528   12.1427 O   0  0  0  0  0  0  0  0  0  0  0  0
  -12.2175   28.2674   11.9744 C   0  0  0  0  0  0  0  0  0  0  0  0
  -11.0251   27.7874   11.2014 C   0  0  0  0  0  0  0  0  0  0  0  0
  -10.1641   28.9761   10.8919 C   0  0  0  0  0  0  0  0  0  0  0  0
  -10.2881   27.4908   10.7236 C   0  0  0  0  0  0  0  0  0  0  0  0
   -8.9881   27.6241    9.9871 C   0  0  0  0  0  0  0  0  0  0  0  0
  -11.5572   27.0527   11.3926 C   0  0  0  0  0  0  0  0  0  0  0  0
  -11.1440   25.6869   10.9304 C   0  0  0  0  0  0  0  0  0  0  0  0
  -12.2862   24.8745   11.4648 C   0  0  0  0  0  0  0  0  0  0  0  0
  -12.3197   23.3913   11.2441 C   0  0  0  0  0  0  0  0  0  0  0  0
  -11.1774   24.2035   10.7096 C   0  0  0  0  0  0  0  0  0  0  0  0
  -10.0687   23.5326    9.9544 C   0  0  0  0  0  0  0  0  0  0  0  0
   -8.8641   29.1094   10.1555 C   0  0  0  0  0  0  0  0  0  0  0  0
   -7.6384   28.7286    9.3791 P   0  0  0  0  0  0  0  0  0  0  0  0
   -6.5674   29.6665    8.9065 C   0  0  0  0  0  0  0  0  0  0  0  0
   -5.5356   28.8606    8.1744 C   0  0  0  0  0  0  0  0  0  0  0  0
   -4.6412   30.0174    7.8402 C   0  0  0  0  0  0  0  0  0  0  0  0
   -3.7468   31.1744    7.5061 C   0  0  0  0  0  0  0  0  0  0  0  0
   -3.6955   29.0850    7.1432 C   0  0  0  0  0  0  0  0  0  0  0  0
   -4.6908   27.8129    7.5120 C   0  0  0  0  0  0  0  0  0  0  0  0
   -5.1242   26.3770    7.5321 C   0  0  0  0  0  0  0  0  0  0  0  0
   -5.9690   27.4247    8.1944 C   0  0  0  0  0  0  0  0  0  0  0  0
   -7.2687   27.3431    8.9390 N   0  0  0  0  0  0  0  0  0  0  0  0
   -8.2245   30.4574   10.0009 C   0  0  0  0  0  0  0  0  0  0  0  0
   -5.8846   34.9766    9.3687 H   0  0  0  0  0  0  0  0  0  0  0  0
   -5.1499   33.0679    8.6311 H   0  0  0  0  0  0  0  0  0  0  0  0
   -9.3167   33.0278   11.0550 H   0  0  0  0  0  0  0  0  0  0  0  0
  -10.3815   35.8323   12.1294 H   0  0  0  0  0  0  0  0  0  0  0  0
   -8.9650   35.7587   11.2935 H   0  0  0  0  0  0  0  0  0  0  0  0
  -10.2059   33.7647   11.6886 H   0  0  0  0  0  0  0  0  0  0  0  0
   -6.6884   34.9669    9.8451 H   0  0  0  0  0  0  0  0  0  0  0  0
   -8.0807   35.9399   10.7958 H   0  0  0  0  0  0  0  0  0  0  0  0
   -5.6277   35.8794    9.3582 H   0  0  0  0  0  0  0  0  0  0  0  0
   -7.7235   37.4210   10.8406 H   0  0  0  0  0  0  0  0  0  0  0  0
   -7.0523   38.6657   10.2158 H   0  0  0  0  0  0  0  0  0  0  0  0
   -4.7400   36.9181    9.4423 H   0  0  0  0  0  0  0  0  0  0  0  0
   -4.0597   38.1603    8.8331 H   0  0  0  0  0  0  0  0  0  0  0  0
   -5.9639   39.5747   10.1438 H   0  0  0  0  0  0  0  0  0  0  0  0
   -5.2360   41.0758   10.0014 H   0  0  0  0  0  0  0  0  0  0  0  0
   -2.5919   42.6686    8.6892 H   0  0  0  0  0  0  0  0  0  0  0  0
   -2.1822   40.7105    9.3950 H   0  0  0  0  0  0  0  0  0  0  0  0
   -4.0827   41.9702    8.7070 H   0  0  0  0  0  0  0  0  0  0  0  0
   -2.6950   40.0379    8.2989 H   0  0  0  0  0  0  0  0  0  0  0  0
   -3.8202   38.3216    8.6692 H   0  0  0  0  0  0  0  0  0  0  0  0
   -1.5385   37.0172    6.4849 H   0  0  0  0  0  0  0  0  0  0  0  0
   -3.4153   37.1022    8.8239 H   0  0  0  0  0  0  0  0  0  0  0  0
   -2.1377   34.6539    8.5747 H   0  0  0  0  0  0  0  0  0  0  0  0
   -5.7261   34.3039    5.3149 H   0  0  0  0  0  0  0  0  0  0  0  0
   -6.3592   31.4245    9.0699 H   0  0  0  0  0  0  0  0  0  0  0  0
   -9.0552   33.1243   10.9173 H   0  0  0  0  0  0  0  0  0  0  0  0
  -11.5982   31.3094   12.1061 H   0  0  0  0  0  0  0  0  0  0  0  0
  -13.3373   27.4122   12.4888 H   0  0  0  0  0  0  0  0  0  0  0  0
  -11.3718   26.3284   11.1671 H   0  0  0  0  0  0  0  0  0  0  0  0
  -10.1803   26.7396   10.5390 H   0  0  0  0  0  0  0  0  0  0  0  0
   -9.9839   26.0791   10.3175 H   0  0  0  0  0  0  0  0  0  0  0  0
   -7.7239   27.3953    9.2129 H   0  0  0  0  0  0  0  0  0  0  0  0
   -8.9761   26.1445    9.7404 H   0  0  0  0  0  0  0  0  0  0  0  0
   -8.6851   29.0918   10.0483 H   0  0  0  0  0  0  0  0  0  0  0  0
  -12.7398   26.3292   11.9650 H   0  0  0  0  0  0  0  0  0  0  0  0
   -9.8445   25.8459   10.1984 H   0  0  0  0  0  0  0  0  0  0  0  0
  -13.3950   25.5455   12.2201 H   0  0  0  0  0  0  0  0  0  0  0  0
  -13.6053   23.0534   11.9390 H   0  0  0  0  0  0  0  0  0  0  0  0
  -11.9066   22.0253   10.7819 H   0  0  0  0  0  0  0  0  0  0  0  0
   -8.9599   22.8616    9.1992 H   0  0  0  0  0  0  0  0  0  0  0  0
  -10.7801   22.2178   10.0780 H   0  0  0  0  0  0  0  0  0  0  0  0
   -9.3573   24.8473    9.8308 H   0  0  0  0  0  0  0  0  0  0  0  0
   -8.7614   27.6428    9.8580 H   0  0  0  0  0  0  0  0  0  0  0  0
   -7.4122   30.7142    9.5688 H   0  0  0  0  0  0  0  0  0  0  0  0
   -5.7947   30.9283    8.6604 H   0  0  0  0  0  0  0  0  0  0  0  0
   -5.4709   31.0841    8.4913 H   0  0  0  0  0  0  0  0  0  0  0  0
   -2.8523   32.3313    7.1720 H   0  0  0  0  0  0  0  0  0  0  0  0
   -2.4692   30.3948    7.4061 H   0  0  0  0  0  0  0  0  0  0  0  0
   -4.9241   32.1019    7.5659 H   0  0  0  0  0  0  0  0  0  0  0  0
   -2.6476   28.3004    6.4106 H   0  0  0  0  0  0  0  0  0  0  0  0
   -2.6924   30.1196    6.7266 H   0  0  0  0  0  0  0  0  0  0  0  0
   -4.3345   27.7368    7.2987 H   0  0  0  0  0  0  0  0  0  0  0  0
   -3.3933   28.0234    6.7895 H   0  0  0  0  0  0  0  0  0  0  0  0
   -3.9925   25.7527    6.7710 H   0  0  0  0  0  0  0  0  0  0  0  0
   -5.9507   25.1580    7.8165 H   0  0  0  0  0  0  0  0  0  0  0  0
   -8.0595   26.0952    9.1980 H   0  0  0  0  0  0  0  0  0  0  0  0
   -6.9716   30.1777    9.2250 H   0  0  0  0  0  0  0  0  0  0  0  0
  1  2  2  3
  2  3  1  0
  3  4  1  0
  3  5  1  0
  5  6  1  0
  6  7  1  0
  7  8  1  0
  8  9  1  0
  9 10  1  0
  9 11  1  0
 11 12  1  0
 12 13  1  0
 13 14  1  0
 14 15  1  0
 15 16  1  0
  2 17  1  0
 17 18  1  0
 18 19  1  0
 19 20  1  0
 20 21  1  0
 21 22  1  0
 22 23  1  0
 23 24  1  0
 24 25  1  0
 25 26  1  0
 25 27  1  0
 27 28  1  0
 28 29  1  0
 29 30  1  0
 30 31  1  0
 31 32  1  0
 24 33  1  0
 33 34  1  0
 34 35  1  0
 35 36  1  0
 36 37  1  0
 37 38  1  0
 37 39  1  0
 36 40  1  0
 40 41  1  0
 41 42  1  0
 42 43  1  0
 33 44  1  0
 44 17  1  0
 44 18  1  0
 24 20  1  0
 31 28  1  0
 43 34  1  0
 27 22  1  0
 31 29  1  0
 42 36  1  0
 42 40  1  0
  1 45  1  0
  1 46  1  0
  3 47  1  0
  4 48  1  0
  4 49  1  0
  4 50  1  0
  5 51  1  0
  5 52  1  0
  6 53  1  0
  6 54  1  0
  7 55  1  0
  7 56  1  0
  8 57  1  0
  8 58  1  0
  9 59  1  0
 10 60  1  0
 10 61  1  0
 10 62  1  0
 11 63  1  0
 11 64  1  0
 13 65  1  0
 13 66  1  0
 14 67  1  0
 16 68  1  0
 17 69  1  0
 18 70  1  0
 20 71  1  0
 22 72  1  0
 23 73  1  0
 23 74  1  0
 25 75  1  0
 26 76  1  0
 26 77  1  0
 26 78  1  0
 27 79  1  0
 28 80  1  0
 29 81  1  0
 30 82  1  0
 30 83  1  0
 32 84  1  0
 32 85  1  0
 32 86  1  0
 33 87  1  0
 35 88  1  0
 35 89  1  0
 37 90  1  0
 38 91  1  0
 38 92  1  0
 38 93  1  0
 39 94  1  0
 39 95  1  0
 39 96  1  0
 40 97  1  0
 41 98  1  0
 41 99  1  0
 43100  1  0
 44101  1  0
M  END
