
     RDKit          2D

 24 24  0  0  0  0  0  0  0  0999 V2000
   15.6349  -19.6222   -9.6961 C   0  0  0  0  0  0  0  0  0  0  0  0
   16.1866  -20.8465  -10.3645 C   0  0  0  0  0  0  0  0  0  0  0  0
   16.7383  -22.0708  -11.0330 C   0  0  0  0  0  0  0  0  0  0  0  0
   16.0526  -20.1776  -11.7004 O   0  0  0  0  0  0  0  0  0  0  0  0
   16.3207  -21.5154   -9.0286 C   0  0  0  0  0  0  0  0  0  0  0  0
   16.4548  -22.1844   -7.6927 C   0  0  0  0  0  0  0  0  0  0  0  0
   15.9368  -21.0940   -6.8023 C   0  0  0  0  0  0  0  0  0  0  0  0
   16.3928  -22.3939   -6.2088 C   0  0  0  0  0  0  0  0  0  0  0  0
   16.9358  -23.7893   -6.1199 O   0  0  0  0  0  0  0  0  0  0  0  0
   17.0699  -24.4583   -4.7840 O   0  0  0  0  0  0  0  0  0  0  0  0
   15.0832  -18.3980   -9.0277 H   0  0  0  0  0  0  0  0  0  0  0  0
   15.5007  -18.9534  -11.0320 H   0  0  0  0  0  0  0  0  0  0  0  0
   15.6328  -19.8537   -8.7395 H   0  0  0  0  0  0  0  0  0  0  0  0
   17.2900  -23.2950  -11.7013 H   0  0  0  0  0  0  0  0  0  0  0  0
   16.6726  -21.5561  -12.4403 H   0  0  0  0  0  0  0  0  0  0  0  0
   16.8566  -22.5510  -10.2981 H   0  0  0  0  0  0  0  0  0  0  0  0
   16.4108  -20.7534  -13.0383 H   0  0  0  0  0  0  0  0  0  0  0  0
   15.9607  -20.7114   -8.5899 H   0  0  0  0  0  0  0  0  0  0  0  0
   16.6520  -22.2818   -9.3244 H   0  0  0  0  0  0  0  0  0  0  0  0
   17.0193  -23.5070   -8.1192 H   0  0  0  0  0  0  0  0  0  0  0  0
   15.5279  -20.3675   -5.5554 H   0  0  0  0  0  0  0  0  0  0  0  0
   15.5183  -19.8544   -7.5359 H   0  0  0  0  0  0  0  0  0  0  0  0
   16.1422  -22.1189   -4.7557 H   0  0  0  0  0  0  0  0  0  0  0  0
   17.6129  -25.8537   -4.6951 H   0  0  0  0  0  0  0  0  0  0  0  0
  1  2  1  0
  2  3  1  0
  2  4  1  0
  2  5  1  0
  5  6  1  0
  6  7  1  0
  7  8  1  0
  8  9  1  0
  9 10  1  0
  8  6  1  0
  1 11  1  0
  1 12  1  0
  1 13  1  0
  3 14  1  0
  3 15  1  0
  3 16  1  0
  4 17  1  0
  5 18  1  0
  5 19  1  0
  6 20  1  0
  7 21  1  0
  7 22  1  0
  8 23  1  0
 10 24  1  0
M  END
