
     RDKit          2D

 30 33  0  0  0  0  0  0  0  0999 V2000
   -3.0493   27.2450    4.3477 C   0  0  0  0  0  0  0  0  0  0  0  0
   -1.8134   27.0464    3.5211 C   0  0  0  0  0  0  0  0  0  0  0  0
   -0.5776   26.8477    2.6946 C   0  0  0  0  0  0  0  0  0  0  0  0
    0.3924   25.9329    2.0073 C   0  0  0  0  0  0  0  0  0  0  0  0
   -0.7782   25.3623    2.7516 C   0  0  0  0  0  0  0  0  0  0  0  0
   -2.0141   25.5609    3.5782 C   0  0  0  0  0  0  0  0  0  0  0  0
   -3.2500   25.7596    4.4047 C   0  0  0  0  0  0  0  0  0  0  0  0
   -3.3760   27.2459    4.5635 O   0  0  0  0  0  0  0  0  0  0  0  0
   -4.4206   25.1890    5.1490 C   0  0  0  0  0  0  0  0  0  0  0  0
   -3.4506   24.2742    4.4617 C   0  0  0  0  0  0  0  0  0  0  0  0
   -2.2148   24.0755    3.6352 C   0  0  0  0  0  0  0  0  0  0  0  0
   -2.4154   22.5901    3.6922 Cl  0  0  0  0  0  0  0  0  0  0  0  0
   -0.9789   23.8768    2.8086 C   0  0  0  0  0  0  0  0  0  0  0  0
    0.2570   23.6782    1.9821 C   0  0  0  0  0  0  0  0  0  0  0  0
    0.3679   22.4909    1.0722 O   0  0  0  0  0  0  0  0  0  0  0  0
   -4.2460   27.6226    5.1695 H   0  0  0  0  0  0  0  0  0  0  0  0
   -2.8033   28.7247    4.3598 H   0  0  0  0  0  0  0  0  0  0  0  0
   -3.5871   25.8575    4.5359 H   0  0  0  0  0  0  0  0  0  0  0  0
   -1.6128   28.5318    3.4641 H   0  0  0  0  0  0  0  0  0  0  0  0
   -0.0639   28.2311    2.4256 H   0  0  0  0  0  0  0  0  0  0  0  0
    1.3405   26.9431    1.4324 H   0  0  0  0  0  0  0  0  0  0  0  0
    1.1594   24.7745    1.4417 H   0  0  0  0  0  0  0  0  0  0  0  0
   -0.3545   23.9668    2.4007 H   0  0  0  0  0  0  0  0  0  0  0  0
   -4.5719   27.6493    5.3741 H   0  0  0  0  0  0  0  0  0  0  0  0
   -5.0613   26.4546    5.6366 H   0  0  0  0  0  0  0  0  0  0  0  0
   -5.3687   24.1787    5.7239 H   0  0  0  0  0  0  0  0  0  0  0  0
   -3.9643   22.8908    4.7307 H   0  0  0  0  0  0  0  0  0  0  0  0
   -0.4852   25.2700    2.5533 H   0  0  0  0  0  0  0  0  0  0  0  0
   -1.1796   22.3914    2.8656 H   0  0  0  0  0  0  0  0  0  0  0  0
    1.4683   24.5619    1.9427 H   0  0  0  0  0  0  0  0  0  0  0  0
  1  2  1  0
  2  3  1  0
  3  4  1  0
  4  5  1  0
  5  6  1  0
  6  7  1  0
  7  8  1  0
  7  9  1  0
  9 10  1  0
 10 11  1  0
 11 12  1  0
 11 13  1  0
 13 14  1  0
 14 15  2  0
  6  2  1  0
 10  7  1  0
  5  3  1  0
 11  6  1  0
  1 16  1  0
  1 17  1  0
  1 18  1  0
  2 19  1  0
  3 20  1  0
  4 21  1  0
  4 22  1  0
  5 23  1  0
  8 24  1  0
  9 25  1  0
  9 26  1  0
 10 27  1  0
 13 28  1  0
 13 29  1  0
 14 30  1  0
M  END
