
     RDKit          2D

 63 68  0  0  0  0  0  0  0  0999 V2000
    5.8052   25.6138    2.3034 N   0  0  0  0  0  0  0  0  0  0  0  0
    4.9808   25.4721    3.5486 C   0  0  0  0  0  0  0  0  0  0  0  0
    4.3927   26.8319    3.3140 C   0  0  0  0  0  0  0  0  0  0  0  0
    3.8046   28.1917    3.0795 C   0  0  0  0  0  0  0  0  0  0  0  0
    4.4853   29.1533    2.1510 O   0  0  0  0  0  0  0  0  0  0  0  0
    5.5689   24.1122    3.7831 C   0  0  0  0  0  0  0  0  0  0  0  0
    6.1570   22.7524    4.0177 C   0  0  0  0  0  0  0  0  0  0  0  0
    4.8703   22.3042    4.6450 C   0  0  0  0  0  0  0  0  0  0  0  0
    5.4584   20.9443    4.8796 C   0  0  0  0  0  0  0  0  0  0  0  0
    6.0464   19.5845    5.1142 O   0  0  0  0  0  0  0  0  0  0  0  0
    4.2822   23.6640    4.4105 C   0  0  0  0  0  0  0  0  0  0  0  0
    2.9955   23.2158    5.0378 C   0  0  0  0  0  0  0  0  0  0  0  0
    2.4075   24.5756    4.8033 C   0  0  0  0  0  0  0  0  0  0  0  0
    1.8194   25.9355    4.5687 C   0  0  0  0  0  0  0  0  0  0  0  0
    1.2313   27.2953    4.3342 C   0  0  0  0  0  0  0  0  0  0  0  0
    1.1875   28.6601    3.7133 C   0  0  0  0  0  0  0  0  0  0  0  0
    0.1716   29.7457    3.9115 C   0  0  0  0  0  0  0  0  0  0  0  0
   -1.0515   29.7346    4.7797 C   0  0  0  0  0  0  0  0  0  0  0  0
   -1.5609   28.6353    5.6641 C   0  0  0  0  0  0  0  0  0  0  0  0
   -2.6813   28.3136    6.6082 C   0  0  0  0  0  0  0  0  0  0  0  0
   -3.3575   27.3551    7.5430 C   0  0  0  0  0  0  0  0  0  0  0  0
   -2.0932   26.9538    6.8427 C   0  0  0  0  0  0  0  0  0  0  0  0
   -0.9728   27.2754    5.8987 N   0  0  0  0  0  0  0  0  0  0  0  0
    0.2698   26.6792    5.3068 C   0  0  0  0  0  0  0  0  0  0  0  0
    3.5836   21.8560    5.2724 C   0  0  0  0  0  0  0  0  0  0  0  0
    2.4930   21.0711    5.9391 C   0  0  0  0  0  0  0  0  0  0  0  0
    3.8185   20.4265    5.6614 C   0  0  0  0  0  0  0  0  0  0  0  0
    5.8316   26.7852    1.3668 H   0  0  0  0  0  0  0  0  0  0  0  0
    6.7709   24.6131    1.7414 H   0  0  0  0  0  0  0  0  0  0  0  0
    5.4814   25.3704    2.9367 H   0  0  0  0  0  0  0  0  0  0  0  0
    3.2970   26.7357    4.3340 H   0  0  0  0  0  0  0  0  0  0  0  0
    5.3450   27.2597    2.2369 H   0  0  0  0  0  0  0  0  0  0  0  0
    2.5388   28.4237    3.8501 H   0  0  0  0  0  0  0  0  0  0  0  0
    6.9176   24.3914    3.1890 H   0  0  0  0  0  0  0  0  0  0  0  0
    7.4436   23.2006    3.3903 H   0  0  0  0  0  0  0  0  0  0  0  0
    6.8974   21.4574    4.1740 H   0  0  0  0  0  0  0  0  0  0  0  0
    6.8467   21.2619    4.4087 H   0  0  0  0  0  0  0  0  0  0  0  0
    4.3135   20.1429    5.4247 H   0  0  0  0  0  0  0  0  0  0  0  0
    7.5218   19.4340    5.3391 H   0  0  0  0  0  0  0  0  0  0  0  0
    3.8553   25.0684    4.1012 H   0  0  0  0  0  0  0  0  0  0  0  0
    1.6467   22.9367    5.6320 H   0  0  0  0  0  0  0  0  0  0  0  0
    1.2204   24.2071    5.6430 H   0  0  0  0  0  0  0  0  0  0  0  0
    3.5139   25.1072    3.9413 H   0  0  0  0  0  0  0  0  0  0  0  0
    0.7263   25.4138    5.4538 H   0  0  0  0  0  0  0  0  0  0  0  0
    2.9123   26.4572    3.6838 H   0  0  0  0  0  0  0  0  0  0  0  0
    2.4848   27.1360    3.5259 H   0  0  0  0  0  0  0  0  0  0  0  0
    2.4301   28.0638    3.1214 H   0  0  0  0  0  0  0  0  0  0  0  0
    1.8342   29.6461    2.7861 H   0  0  0  0  0  0  0  0  0  0  0  0
    1.0256   30.5102    2.9439 H   0  0  0  0  0  0  0  0  0  0  0  0
   -0.2756   31.1346    3.5637 H   0  0  0  0  0  0  0  0  0  0  0  0
   -1.2491   31.1258    4.2547 H   0  0  0  0  0  0  0  0  0  0  0  0
   -2.2558   30.4805    5.2731 H   0  0  0  0  0  0  0  0  0  0  0  0
   -2.5843   29.7120    5.8719 H   0  0  0  0  0  0  0  0  0  0  0  0
   -3.5393   29.5438    6.6259 H   0  0  0  0  0  0  0  0  0  0  0  0
   -4.5282   28.1900    7.9701 H   0  0  0  0  0  0  0  0  0  0  0  0
   -3.6272   26.1066    8.3295 H   0  0  0  0  0  0  0  0  0  0  0  0
   -1.8151   25.5570    7.3136 H   0  0  0  0  0  0  0  0  0  0  0  0
   -0.2395   25.5797    6.1911 H   0  0  0  0  0  0  0  0  0  0  0  0
    1.1862   25.4944    5.2261 H   0  0  0  0  0  0  0  0  0  0  0  0
    1.3123   21.9867    6.0727 H   0  0  0  0  0  0  0  0  0  0  0  0
    1.7762   19.9240    6.5875 H   0  0  0  0  0  0  0  0  0  0  0  0
    3.5624   19.0555    6.2133 H   0  0  0  0  0  0  0  0  0  0  0  0
    5.1886   19.9190    5.3214 H   0  0  0  0  0  0  0  0  0  0  0  0
  1  2  1  0
  2  3  1  0
  3  4  1  0
  4  5  2  0
  2  6  1  0
  6  7  1  0
  7  8  1  0
  8  9  1  0
  9 10  1  0
  8 11  1  0
 11 12  1  0
 12 13  1  0
 13 14  1  0
 14 15  1  0
 15 16  1  0
 16 17  1  0
 17 18  1  0
 18 19  1  0
 19 20  1  0
 20 21  1  0
 21 22  1  0
 22 23  1  0
 23 24  1  0
 12 25  1  0
 25 26  1  0
 26 27  1  0
 11  6  1  0
 24 15  1  0
 27 25  1  0
 25  8  1  0
 23 19  1  0
 22 20  1  0
  1 28  1  0
  1 29  1  0
  2 30  1  0
  3 31  1  0
  3 32  1  0
  4 33  1  0
  6 34  1  0
  7 35  1  0
  7 36  1  0
  9 37  1  0
  9 38  1  0
 10 39  1  0
 11 40  1  0
 12 41  1  0
 13 42  1  0
 13 43  1  0
 14 44  1  0
 14 45  1  0
 15 46  1  0
 16 47  1  0
 16 48  1  0
 17 49  1  0
 17 50  1  0
 18 51  1  0
 18 52  1  0
 19 53  1  0
 20 54  1  0
 21 55  1  0
 21 56  1  0
 22 57  1  0
 24 58  1  0
 24 59  1  0
 26 60  1  0
 26 61  1  0
 27 62  1  0
 27 63  1  0
M  END
