
     RDKit          2D

 28 27  0  0  0  0  0  0  0  0999 V2000
    5.3542   31.0761   14.0501 C   0  0  0  0  0  0  0  0  0  0  0  0
    3.9781   30.6376   13.6451 C   0  0  0  0  0  0  0  0  0  0  0  0
    2.6019   30.1992   13.2402 C   0  0  0  0  0  0  0  0  0  0  0  0
    2.0299   30.8774   14.4497 Cl  0  0  0  0  0  0  0  0  0  0  0  0
    1.2258   29.7607   12.8353 C   0  0  0  0  0  0  0  0  0  0  0  0
   -0.1504   29.3222   12.4303 O   0  0  0  0  0  0  0  0  0  0  0  0
   -0.4807   29.1332   10.9794 N   0  0  0  0  0  0  0  0  0  0  0  0
   -0.2728   27.7968   10.3308 C   0  0  0  0  0  0  0  0  0  0  0  0
   -0.0649   26.4603    9.6822 C   0  0  0  0  0  0  0  0  0  0  0  0
    0.1430   25.1239    9.0335 C   0  0  0  0  0  0  0  0  0  0  0  0
    0.3510   23.7875    8.3849 O   0  0  0  0  0  0  0  0  0  0  0  0
    1.6659   23.4632    7.7401 O   0  0  0  0  0  0  0  0  0  0  0  0
    6.7303   31.5146   14.4550 H   0  0  0  0  0  0  0  0  0  0  0  0
    4.9124   31.1400   15.4821 H   0  0  0  0  0  0  0  0  0  0  0  0
    5.7959   31.0122   12.6180 H   0  0  0  0  0  0  0  0  0  0  0  0
    4.4812   30.3328   12.2653 H   0  0  0  0  0  0  0  0  0  0  0  0
    3.4749   30.9425   15.0250 H   0  0  0  0  0  0  0  0  0  0  0  0
    3.1739   29.5209   12.0307 H   0  0  0  0  0  0  0  0  0  0  0  0
    1.7985   29.0769   11.6293 H   0  0  0  0  0  0  0  0  0  0  0  0
    0.6530   30.4445   14.0412 H   0  0  0  0  0  0  0  0  0  0  0  0
   -1.0190   30.2806   10.1771 H   0  0  0  0  0  0  0  0  0  0  0  0
    1.0457   28.2645    9.7898 H   0  0  0  0  0  0  0  0  0  0  0  0
   -1.5913   27.3290   10.8719 H   0  0  0  0  0  0  0  0  0  0  0  0
    1.2996   26.8911    9.2319 H   0  0  0  0  0  0  0  0  0  0  0  0
   -1.4293   26.0295   10.1324 H   0  0  0  0  0  0  0  0  0  0  0  0
   -1.2003   24.6752    9.5275 H   0  0  0  0  0  0  0  0  0  0  0  0
    1.4864   25.5727    8.5396 H   0  0  0  0  0  0  0  0  0  0  0  0
    1.8738   22.1268    7.0914 H   0  0  0  0  0  0  0  0  0  0  0  0
  1  2  1  0
  2  3  1  0
  3  4  1  0
  3  5  1  0
  5  6  1  0
  6  7  1  0
  7  8  1  0
  8  9  1  0
  9 10  1  0
 10 11  1  0
 11 12  1  0
  1 13  1  0
  1 14  1  0
  1 15  1  0
  2 16  1  0
  2 17  1  0
  3 18  1  0
  5 19  1  0
  5 20  1  0
  7 21  1  0
  8 22  1  0
  8 23  1  0
  9 24  1  0
  9 25  1  0
 10 26  1  0
 10 27  1  0
 12 28  1  0
M  END
