
     RDKit          2D

 58 59  0  0  0  0  0  0  0  0999 V2000
   14.5023  -18.8699   -4.4407 C   0  0  0  0  0  0  0  0  0  0  0  0
   15.4199  -17.8182   -4.9900 C   0  0  0  0  0  0  0  0  0  0  0  0
   15.9110  -16.4841   -4.5115 C   0  0  0  0  0  0  0  0  0  0  0  0
   15.1045  -16.6373   -3.2562 F   0  0  0  0  0  0  0  0  0  0  0  0
   16.7176  -16.3307   -5.7669 C   0  0  0  0  0  0  0  0  0  0  0  0
   16.2264  -17.6649   -6.2454 C   0  0  0  0  0  0  0  0  0  0  0  0
   15.7353  -18.9990   -6.7239 C   0  0  0  0  0  0  0  0  0  0  0  0
   17.0330  -17.5115   -7.5007 C   0  0  0  0  0  0  0  0  0  0  0  0
   17.8396  -17.3582   -8.7561 C   0  0  0  0  0  0  0  0  0  0  0  0
   18.6462  -17.2049  -10.0115 C   0  0  0  0  0  0  0  0  0  0  0  0
   17.3560  -18.6966   -9.2303 C   0  0  0  0  0  0  0  0  0  0  0  0
   16.8724  -20.0350   -9.7044 C   0  0  0  0  0  0  0  0  0  0  0  0
   16.3887  -21.3734  -10.1786 N   0  0  0  0  0  0  0  0  0  0  0  0
   17.1584  -22.6140   -9.8345 C   0  0  0  0  0  0  0  0  0  0  0  0
   16.0371  -23.2151  -10.6291 C   0  0  0  0  0  0  0  0  0  0  0  0
   15.9821  -24.6984  -10.8451 C   0  0  0  0  0  0  0  0  0  0  0  0
   15.4985  -26.0368  -11.3193 C   0  0  0  0  0  0  0  0  0  0  0  0
   17.0484  -25.5806  -10.2666 C   0  0  0  0  0  0  0  0  0  0  0  0
   18.1696  -24.9796   -9.4720 C   0  0  0  0  0  0  0  0  0  0  0  0
   19.4230  -24.8818   -8.6537 C   0  0  0  0  0  0  0  0  0  0  0  0
   20.6763  -24.7840   -7.8355 C   0  0  0  0  0  0  0  0  0  0  0  0
   18.2246  -23.4963   -9.2560 C   0  0  0  0  0  0  0  0  0  0  0  0
   13.8503  -18.6727   -3.1042 H   0  0  0  0  0  0  0  0  0  0  0  0
   14.2366  -20.1188   -5.2277 H   0  0  0  0  0  0  0  0  0  0  0  0
   16.4022  -15.1500   -4.0331 H   0  0  0  0  0  0  0  0  0  0  0  0
   17.2088  -14.9966   -5.2884 H   0  0  0  0  0  0  0  0  0  0  0  0
   17.5781  -16.0159   -6.9546 H   0  0  0  0  0  0  0  0  0  0  0  0
   15.2442  -20.3331   -7.2024 H   0  0  0  0  0  0  0  0  0  0  0  0
   15.2778  -19.1661   -6.0929 H   0  0  0  0  0  0  0  0  0  0  0  0
   15.3414  -18.9933   -6.0308 H   0  0  0  0  0  0  0  0  0  0  0  0
   16.4470  -18.8543   -7.8227 H   0  0  0  0  0  0  0  0  0  0  0  0
   17.6191  -16.1689   -7.1787 H   0  0  0  0  0  0  0  0  0  0  0  0
   18.3232  -16.0199   -8.2819 H   0  0  0  0  0  0  0  0  0  0  0  0
   19.4528  -17.0516  -11.2668 H   0  0  0  0  0  0  0  0  0  0  0  0
   19.1371  -15.8707   -9.5331 H   0  0  0  0  0  0  0  0  0  0  0  0
   18.2573  -18.5105  -10.6392 H   0  0  0  0  0  0  0  0  0  0  0  0
   17.5382  -18.4474  -10.6981 H   0  0  0  0  0  0  0  0  0  0  0  0
   17.0559  -19.2722   -7.8779 H   0  0  0  0  0  0  0  0  0  0  0  0
   15.7687  -19.7796   -8.7213 H   0  0  0  0  0  0  0  0  0  0  0  0
   18.0437  -20.1280  -10.6368 H   0  0  0  0  0  0  0  0  0  0  0  0
   15.1245  -21.2889  -10.9816 H   0  0  0  0  0  0  0  0  0  0  0  0
   18.1196  -21.7211   -9.1073 H   0  0  0  0  0  0  0  0  0  0  0  0
   14.7837  -23.3128  -11.4474 H   0  0  0  0  0  0  0  0  0  0  0  0
   15.5127  -21.8198  -10.7965 H   0  0  0  0  0  0  0  0  0  0  0  0
   14.7478  -24.2811  -11.5884 H   0  0  0  0  0  0  0  0  0  0  0  0
   15.0147  -27.3752  -11.7935 H   0  0  0  0  0  0  0  0  0  0  0  0
   14.3300  -25.3771  -11.9896 H   0  0  0  0  0  0  0  0  0  0  0  0
   16.5992  -26.8548  -10.7118 H   0  0  0  0  0  0  0  0  0  0  0  0
   17.8180  -26.8213   -9.9225 H   0  0  0  0  0  0  0  0  0  0  0  0
   16.3143  -26.7363  -10.8796 H   0  0  0  0  0  0  0  0  0  0  0  0
   18.5499  -26.4290   -9.4039 H   0  0  0  0  0  0  0  0  0  0  0  0
   19.5895  -26.3705   -8.7310 H   0  0  0  0  0  0  0  0  0  0  0  0
   19.4105  -23.3923   -8.4773 H   0  0  0  0  0  0  0  0  0  0  0  0
   21.9297  -24.6864   -7.0172 H   0  0  0  0  0  0  0  0  0  0  0  0
   20.8419  -26.2730   -7.9112 H   0  0  0  0  0  0  0  0  0  0  0  0
   20.5108  -23.2952   -7.7597 H   0  0  0  0  0  0  0  0  0  0  0  0
   18.7083  -22.1579   -8.7818 H   0  0  0  0  0  0  0  0  0  0  0  0
   19.4831  -23.7359   -8.4755 H   0  0  0  0  0  0  0  0  0  0  0  0
  1  2  2  3
  2  3  1  0
  3  4  1  0
  3  5  1  0
  5  6  1  0
  6  7  1  0
  6  8  1  0
  8  9  1  0
  9 10  1  0
  9 11  1  0
 11 12  1  0
 12 13  1  0
 13 14  1  0
 14 15  1  0
 15 16  1  0
 16 17  1  0
 16 18  1  0
 18 19  1  0
 19 20  1  0
 20 21  1  0
 19 22  1  0
  6  2  1  0
 22 14  1  0
  1 23  1  0
  1 24  1  0
  3 25  1  0
  5 26  1  0
  5 27  1  0
  7 28  1  0
  7 29  1  0
  7 30  1  0
  8 31  1  0
  8 32  1  0
  9 33  1  0
 10 34  1  0
 10 35  1  0
 10 36  1  0
 11 37  1  0
 11 38  1  0
 12 39  1  0
 12 40  1  0
 13 41  1  0
 14 42  1  0
 15 43  1  0
 15 44  1  0
 16 45  1  0
 17 46  1  0
 17 47  1  0
 17 48  1  0
 18 49  1  0
 18 50  1  0
 19 51  1  0
 20 52  1  0
 20 53  1  0
 21 54  1  0
 21 55  1  0
 21 56  1  0
 22 57  1  0
 22 58  1  0
M  END
