
     RDKit          2D

112115  0  0  0  0  0  0  0  0999 V2000
   17.8884  -18.4783   -4.1577 C   0  0  0  0  0  0  0  0  0  0  0  0
   18.4695  -17.4539   -3.2289 C   0  0  0  0  0  0  0  0  0  0  0  0
   18.6642  -17.7815   -1.7781 C   0  0  0  0  0  0  0  0  0  0  0  0
   18.1057  -19.1537   -2.0131 C   0  0  0  0  0  0  0  0  0  0  0  0
   17.9105  -18.8259   -3.4637 C   0  0  0  0  0  0  0  0  0  0  0  0
   17.5472  -20.5259   -2.2481 C   0  0  0  0  0  0  0  0  0  0  0  0
   17.2098  -21.8286   -1.5854 C   0  0  0  0  0  0  0  0  0  0  0  0
   16.6513  -23.2008   -1.8204 O   0  0  0  0  0  0  0  0  0  0  0  0
   16.0849  -24.1183   -2.8632 C   0  0  0  0  0  0  0  0  0  0  0  0
   16.0976  -24.8539   -1.5561 C   0  0  0  0  0  0  0  0  0  0  0  0
   15.7270  -24.2306   -4.3156 C   0  0  0  0  0  0  0  0  0  0  0  0
   15.3897  -25.5333   -3.6530 C   0  0  0  0  0  0  0  0  0  0  0  0
   15.7143  -23.4949   -5.6227 C   0  0  0  0  0  0  0  0  0  0  0  0
   15.1479  -24.4124   -6.6655 C   0  0  0  0  0  0  0  0  0  0  0  0
   14.5816  -25.3298   -7.7083 C   0  0  0  0  0  0  0  0  0  0  0  0
   16.0517  -22.1922   -6.2854 C   0  0  0  0  0  0  0  0  0  0  0  0
   16.6102  -20.8200   -6.0503 C   0  0  0  0  0  0  0  0  0  0  0  0
   17.1766  -19.9025   -5.0075 C   0  0  0  0  0  0  0  0  0  0  0  0
   17.5139  -18.5998   -5.6701 C   0  0  0  0  0  0  0  0  0  0  0  0
   17.5345  -19.7902   -3.5552 C   0  0  0  0  0  0  0  0  0  0  0  0
   19.2227  -16.4094   -1.5432 C   0  0  0  0  0  0  0  0  0  0  0  0
   19.1279  -15.8484   -2.9310 C   0  0  0  0  0  0  0  0  0  0  0  0
   19.8143  -15.2320   -0.8262 C   0  0  0  0  0  0  0  0  0  0  0  0
   20.3673  -14.3916    0.2864 C   0  0  0  0  0  0  0  0  0  0  0  0
   19.5116  -16.4939   -0.0737 C   0  0  0  0  0  0  0  0  0  0  0  0
   19.0534  -17.8954    0.2018 C   0  0  0  0  0  0  0  0  0  0  0  0
   18.5795  -18.3910   -1.1323 O   0  0  0  0  0  1  0  0  0  0  0  0
   19.4275  -17.7341    1.6453 N   0  0  0  0  0  2  0  0  0  0  0  0
   19.2177  -18.8671    2.6056 C   0  0  0  0  0  0  0  0  0  0  0  0
   19.7721  -18.0271    3.7179 C   0  0  0  0  0  0  0  0  0  0  0  0
   18.6634  -19.7071    1.4933 C   0  0  0  0  0  0  0  0  0  0  0  0
   18.4536  -20.8402    2.4537 O   0  0  0  0  0  0  0  0  0  0  0  0
   19.0080  -20.0002    3.5659 C   0  0  0  0  0  0  0  0  0  0  0  0
   19.5623  -19.1601    4.6782 C   0  0  0  0  0  0  0  0  0  0  0  0
   20.1167  -18.3201    5.7903 C   0  0  0  0  0  0  0  0  0  0  0  0
   18.7982  -21.1332    4.5262 C   0  0  0  0  0  0  0  0  0  0  0  0
   18.5884  -22.2662    5.4865 O   0  0  0  0  0  0  0  0  0  0  0  0
   19.0182  -20.1978    5.6779 C   0  0  0  0  0  0  0  0  0  0  0  0
   19.2382  -19.2624    6.8297 C   0  0  0  0  0  0  0  0  0  0  0  0
   19.5110  -18.1433    5.8688 C   0  0  0  0  0  0  0  0  0  0  0  0
   19.4582  -18.3269    7.9815 C   0  0  0  0  0  0  0  0  0  0  0  0
   19.6781  -17.3916    9.1333 C   0  0  0  0  0  0  0  0  0  0  0  0
   19.8981  -16.4561   10.2850 C   0  0  0  0  0  0  0  0  0  0  0  0
   20.1772  -15.1896   11.0389 C   0  0  0  0  0  0  0  0  0  0  0  0
   20.1446  -15.1782    9.5392 C   0  0  0  0  0  0  0  0  0  0  0  0
   17.9068  -17.6806   -5.4279 H   0  0  0  0  0  0  0  0  0  0  0  0
   17.3672  -19.8849   -4.1630 H   0  0  0  0  0  0  0  0  0  0  0  0
   18.8558  -16.1017   -3.7508 H   0  0  0  0  0  0  0  0  0  0  0  0
   18.7180  -18.4316   -0.4274 H   0  0  0  0  0  0  0  0  0  0  0  0
   18.3009  -19.4816   -0.5625 H   0  0  0  0  0  0  0  0  0  0  0  0
   17.8601  -17.3271   -3.4935 H   0  0  0  0  0  0  0  0  0  0  0  0
   17.8900  -20.2380   -3.9692 H   0  0  0  0  0  0  0  0  0  0  0  0
   17.7153  -18.4980   -4.9144 H   0  0  0  0  0  0  0  0  0  0  0  0
   17.9598  -20.2430   -0.8340 H   0  0  0  0  0  0  0  0  0  0  0  0
   17.2225  -22.5644   -0.2783 H   0  0  0  0  0  0  0  0  0  0  0  0
   17.7512  -21.0486   -0.4242 H   0  0  0  0  0  0  0  0  0  0  0  0
   15.5901  -25.5290   -2.7402 H   0  0  0  0  0  0  0  0  0  0  0  0
   15.5143  -26.0607   -2.2297 H   0  0  0  0  0  0  0  0  0  0  0  0
   16.6809  -23.6473   -0.8826 H   0  0  0  0  0  0  0  0  0  0  0  0
   16.1103  -25.5897   -0.2489 H   0  0  0  0  0  0  0  0  0  0  0  0
   15.1441  -25.2719   -5.2244 H   0  0  0  0  0  0  0  0  0  0  0  0
   14.8645  -26.2289   -4.8738 H   0  0  0  0  0  0  0  0  0  0  0  0
   15.8773  -24.9926   -2.3415 H   0  0  0  0  0  0  0  0  0  0  0  0
   15.0524  -26.8360   -2.9903 H   0  0  0  0  0  0  0  0  0  0  0  0
   15.3154  -23.3395   -7.7003 H   0  0  0  0  0  0  0  0  0  0  0  0
   14.8485  -25.6754   -5.9137 H   0  0  0  0  0  0  0  0  0  0  0  0
   14.4111  -26.4016   -6.6728 H   0  0  0  0  0  0  0  0  0  0  0  0
   14.7520  -24.2581   -8.7439 H   0  0  0  0  0  0  0  0  0  0  0  0
   14.0152  -26.2473   -8.7511 H   0  0  0  0  0  0  0  0  0  0  0  0
   15.6938  -22.3045   -7.7377 H   0  0  0  0  0  0  0  0  0  0  0  0
   16.9476  -19.5172   -6.7130 H   0  0  0  0  0  0  0  0  0  0  0  0
   16.2523  -20.9323   -7.5027 H   0  0  0  0  0  0  0  0  0  0  0  0
   17.2618  -18.4173   -7.1375 H   0  0  0  0  0  0  0  0  0  0  0  0
   18.1034  -17.4795   -4.8654 H   0  0  0  0  0  0  0  0  0  0  0  0
   18.1253  -18.6407   -2.7940 H   0  0  0  0  0  0  0  0  0  0  0  0
   17.6752  -18.7681   -4.6440 H   0  0  0  0  0  0  0  0  0  0  0  0
   18.5380  -16.9685   -3.7358 H   0  0  0  0  0  0  0  0  0  0  0  0
   18.5436  -17.1427   -3.4143 H   0  0  0  0  0  0  0  0  0  0  0  0
   19.0330  -15.2875   -4.3190 H   0  0  0  0  0  0  0  0  0  0  0  0
   20.0621  -14.0431   -1.7064 H   0  0  0  0  0  0  0  0  0  0  0  0
   20.1513  -15.5225    1.2479 H   0  0  0  0  0  0  0  0  0  0  0  0
   20.6492  -13.1668   -0.5324 H   0  0  0  0  0  0  0  0  0  0  0  0
   20.9204  -13.5513    1.3990 H   0  0  0  0  0  0  0  0  0  0  0  0
   19.9092  -16.2594    1.3536 H   0  0  0  0  0  0  0  0  0  0  0  0
   18.5530  -19.3061    0.2991 H   0  0  0  0  0  0  0  0  0  0  0  0
   19.7028  -18.9233    4.9188 H   0  0  0  0  0  0  0  0  0  0  0  0
   19.9818  -16.8940    2.7576 H   0  0  0  0  0  0  0  0  0  0  0  0
   20.3479  -17.0552    4.7048 H   0  0  0  0  0  0  0  0  0  0  0  0
   18.1090  -20.5471    0.3812 H   0  0  0  0  0  0  0  0  0  0  0  0
   18.6605  -18.9505    0.1982 H   0  0  0  0  0  0  0  0  0  0  0  0
   19.9965  -20.0144    5.8321 H   0  0  0  0  0  0  0  0  0  0  0  0
   19.8802  -20.2862    5.6168 H   0  0  0  0  0  0  0  0  0  0  0  0
   20.5576  -19.1750    6.9414 H   0  0  0  0  0  0  0  0  0  0  0  0
   20.4418  -19.4467    6.7259 H   0  0  0  0  0  0  0  0  0  0  0  0
   20.5412  -17.0921    6.5399 H   0  0  0  0  0  0  0  0  0  0  0  0
   18.5782  -22.0687    3.3744 H   0  0  0  0  0  0  0  0  0  0  0  0
   18.2804  -23.7254    5.3255 H   0  0  0  0  0  0  0  0  0  0  0  0
   18.8684  -21.0709    6.8884 H   0  0  0  0  0  0  0  0  0  0  0  0
   18.8090  -21.3310    6.6382 H   0  0  0  0  0  0  0  0  0  0  0  0
   18.9654  -20.3814    7.7907 H   0  0  0  0  0  0  0  0  0  0  0  0
   19.1453  -17.0177    6.7904 H   0  0  0  0  0  0  0  0  0  0  0  0
   19.0788  -17.2906    7.0246 H   0  0  0  0  0  0  0  0  0  0  0  0
   19.7327  -16.9112    5.0427 H   0  0  0  0  0  0  0  0  0  0  0  0
   19.2504  -19.4604    8.9418 H   0  0  0  0  0  0  0  0  0  0  0  0
   19.7309  -16.9335    7.4979 H   0  0  0  0  0  0  0  0  0  0  0  0
   19.8932  -16.2596    8.1729 H   0  0  0  0  0  0  0  0  0  0  0  0
   19.4379  -18.6290    9.9462 H   0  0  0  0  0  0  0  0  0  0  0  0
   19.7281  -17.4091   11.4309 H   0  0  0  0  0  0  0  0  0  0  0  0
   20.1041  -15.7028   12.4465 H   0  0  0  0  0  0  0  0  0  0  0  0
   20.4817  -13.7449   11.3037 H   0  0  0  0  0  0  0  0  0  0  0  0
   20.4377  -13.7295    9.2834 H   0  0  0  0  0  0  0  0  0  0  0  0
   20.0446  -15.4975    8.0770 H   0  0  0  0  0  0  0  0  0  0  0  0
  1  2  2  0
  2  3  1  0
  3  4  1  0
  4  5  1  0
  4  6  1  0
  6  7  1  0
  7  8  1  0
  8  9  1  0
  9 10  1  0
  9 11  1  0
 11 12  1  0
 11 13  1  0
 13 14  1  0
 14 15  1  0
 13 16  2  0
 16 17  1  0
 17 18  1  0
 18 19  2  0
 18 20  1  0
  3 21  1  0
 21 22  1  0
 21 23  1  0
 23 24  1  0
 23 25  1  0
 25 26  1  0
 26 27  1  0
 26 28  1  0
 28 29  1  0
 29 30  1  0
 29 31  1  0
 31 32  1  0
 32 33  1  0
 33 34  1  0
 34 35  1  0
 33 36  1  0
 36 37  1  0
 36 38  1  0
 38 39  1  0
 39 40  1  0
 39 41  1  0
 41 42  1  0
 42 43  1  0
 43 44  1  0
 44 45  1  0
 20  6  1  0
 25 21  1  0
 33 29  1  0
 45 43  1  0
  1 46  1  0
  1 47  1  0
  2 48  1  0
  3 49  1  0
  4 50  1  0
  5 51  1  0
  5 52  1  0
  5 53  1  0
  6 54  1  0
  7 55  1  0
  7 56  1  0
  9 57  1  0
 10 58  1  0
 10 59  1  0
 10 60  1  0
 11 61  1  0
 12 62  1  0
 12 63  1  0
 12 64  1  0
 14 65  1  0
 14 66  1  0
 15 67  1  0
 15 68  1  0
 15 69  1  0
 16 70  1  0
 17 71  1  0
 17 72  1  0
 19 73  1  0
 19 74  1  0
 20 75  1  0
 20 76  1  0
 22 77  1  0
 22 78  1  0
 22 79  1  0
 23 80  1  0
 24 81  1  0
 24 82  1  0
 24 83  1  0
 25 84  1  0
 26 85  1  0
 30 86  1  0
 30 87  1  0
 30 88  1  0
 31 89  1  0
 31 90  1  0
 34 91  1  0
 34 92  1  0
 35 93  1  0
 35 94  1  0
 35 95  1  0
 36 96  1  0
 37 97  1  0
 38 98  1  0
 38 99  1  0
 39100  1  0
 40101  1  0
 40102  1  0
 40103  1  0
 41104  1  0
 41105  1  0
 42106  1  0
 42107  1  0
 43108  1  0
 44109  1  0
 44110  1  0
 45111  1  0
 45112  1  0
M  RAD  2  27   2  28   2
M  END
