
     RDKit          2D

109115  0  0  0  0  0  0  0  0999 V2000
   24.0436  -11.5455   -6.3617 C   0  0  0  0  0  0  0  0  0  0  0  0
   23.2092  -11.8989   -7.5570 C   0  0  0  0  0  0  0  0  0  0  0  0
   23.2794  -13.2797   -8.1389 C   0  0  0  0  0  0  0  0  0  0  0  0
   23.3497  -14.6604   -8.7208 C   0  0  0  0  0  0  0  0  0  0  0  0
   23.4199  -16.0412   -9.3027 C   0  0  0  0  0  0  0  0  0  0  0  0
   22.4113  -15.6539  -10.3433 C   0  0  0  0  0  0  0  0  0  0  0  0
   23.4901  -17.4220   -9.8846 C   0  0  0  0  0  0  0  0  0  0  0  0
   22.4784  -17.0359  -10.9226 C   0  0  0  0  0  0  0  0  0  0  0  0
   22.0028  -15.6176  -10.8132 C   0  0  0  0  0  0  0  0  0  0  0  0
   21.2040  -14.4068  -11.1952 C   0  0  0  0  0  0  0  0  0  0  0  0
   23.5167  -17.5424   -9.9106 C   0  0  0  0  0  0  0  0  0  0  0  0
   24.1888  -18.8725   -9.7396 C   0  0  0  0  0  0  0  0  0  0  0  0
   24.7484  -18.0113   -8.6464 C   0  0  0  0  0  0  0  0  0  0  0  0
   25.3080  -17.1501   -7.5532 O   0  0  0  0  0  0  0  0  0  0  0  0
   24.1271  -20.1914  -10.4514 C   0  0  0  0  0  0  0  0  0  0  0  0
   23.1154  -19.8054  -11.4894 C   0  0  0  0  0  0  0  0  0  0  0  0
   22.5487  -18.4166  -11.5045 C   0  0  0  0  0  0  0  0  0  0  0  0
   22.2013  -19.5210  -12.4583 C   0  0  0  0  0  0  0  0  0  0  0  0
   22.6134  -20.9506  -12.6501 C   0  0  0  0  0  0  0  0  0  0  0  0
   21.4965  -20.1581  -13.6191 C   0  0  0  0  0  0  0  0  0  0  0  0
   20.5561  -20.2177  -14.7861 C   0  0  0  0  0  0  0  0  0  0  0  0
   19.5426  -19.6895  -15.7576 C   0  0  0  0  0  0  0  0  0  0  0  0
   18.6313  -18.6648  -16.3656 C   0  0  0  0  0  0  0  0  0  0  0  0
   17.9798  -17.3209  -16.5050 C   0  0  0  0  0  0  0  0  0  0  0  0
   17.7008  -15.8901  -16.1516 C   0  0  0  0  0  0  0  0  0  0  0  0
   16.8227  -14.7979  -16.6868 C   0  0  0  0  0  0  0  0  0  0  0  0
   15.9447  -13.7059  -17.2219 C   0  0  0  0  0  0  0  0  0  0  0  0
   15.0667  -12.6138  -17.7571 C   0  0  0  0  0  0  0  0  0  0  0  0
   17.8424  -14.6198  -15.3666 C   0  0  0  0  0  0  0  0  0  0  0  0
   18.3802  -13.7296  -14.2857 C   0  0  0  0  0  0  0  0  0  0  0  0
   18.1699  -12.3086  -13.8539 C   0  0  0  0  0  0  0  0  0  0  0  0
   17.5239  -12.0034  -15.1730 C   0  0  0  0  0  0  0  0  0  0  0  0
       nan       nan       nan C   0  0  0  0  0  0  0  0  0  0  0  0
   17.3136  -10.5825  -14.7412 O   0  0  0  0  0  0  0  0  0  0  0  0
   17.9595  -10.8876  -13.4222 C   0  0  0  0  0  0  0  0  0  0  0  0
   18.5290  -10.8145  -12.0364 C   0  0  0  0  0  0  0  0  0  0  0  0
   17.9235   -9.5939  -12.6637 C   0  0  0  0  0  0  0  0  0  0  0  0
   17.2492   -8.7168  -13.6766 C   0  0  0  0  0  0  0  0  0  0  0  0
   16.5749   -7.8397  -14.6896 C   0  0  0  0  0  0  0  0  0  0  0  0
   19.2213  -13.3736  -13.0958 C   0  0  0  0  0  0  0  0  0  0  0  0
   20.2201  -13.6131  -12.0027 C   0  0  0  0  0  0  0  0  0  0  0  0
   20.8166  -12.8035  -10.8897 C   0  0  0  0  0  0  0  0  0  0  0  0
   23.5604  -18.8027  -10.4665 C   0  0  0  0  0  0  0  0  0  0  0  0
   23.9734  -10.1647   -5.7798 H   0  0  0  0  0  0  0  0  0  0  0  0
   24.9483  -12.5727   -5.7483 H   0  0  0  0  0  0  0  0  0  0  0  0
   22.3045  -10.8717   -8.1704 H   0  0  0  0  0  0  0  0  0  0  0  0
   22.2758  -12.8904   -9.1835 H   0  0  0  0  0  0  0  0  0  0  0  0
   24.2830  -13.6688   -7.0942 H   0  0  0  0  0  0  0  0  0  0  0  0
   24.3533  -15.0496   -7.6762 H   0  0  0  0  0  0  0  0  0  0  0  0
   22.3589  -13.9487   -9.5936 H   0  0  0  0  0  0  0  0  0  0  0  0
   24.4284  -16.4284   -8.2621 H   0  0  0  0  0  0  0  0  0  0  0  0
   22.2349  -16.9001  -11.1592 H   0  0  0  0  0  0  0  0  0  0  0  0
   22.3417  -14.2729   -9.7619 H   0  0  0  0  0  0  0  0  0  0  0  0
   21.4028  -15.2667  -11.3839 H   0  0  0  0  0  0  0  0  0  0  0  0
   24.4094  -17.2874   -8.7070 H   0  0  0  0  0  0  0  0  0  0  0  0
   23.2663  -18.2598  -10.5602 H   0  0  0  0  0  0  0  0  0  0  0  0
   22.0386  -14.2847  -10.1261 H   0  0  0  0  0  0  0  0  0  0  0  0
   22.9065  -15.4332   -9.6304 H   0  0  0  0  0  0  0  0  0  0  0  0
   21.7567  -13.5364  -10.1058 H   0  0  0  0  0  0  0  0  0  0  0  0
   24.2877  -17.0304   -8.7302 H   0  0  0  0  0  0  0  0  0  0  0  0
   23.6840  -16.2896   -9.1031 H   0  0  0  0  0  0  0  0  0  0  0  0
   25.1506  -19.7567   -9.0027 H   0  0  0  0  0  0  0  0  0  0  0  0
   23.9129  -16.7969   -8.9245 H   0  0  0  0  0  0  0  0  0  0  0  0
   25.6589  -19.1290   -8.2320 H   0  0  0  0  0  0  0  0  0  0  0  0
   26.3203  -17.7122   -6.5994 H   0  0  0  0  0  0  0  0  0  0  0  0
   25.0383  -21.2161   -9.8434 H   0  0  0  0  0  0  0  0  0  0  0  0
   23.0266  -21.1089  -12.2264 H   0  0  0  0  0  0  0  0  0  0  0  0
   23.1932  -20.2728  -11.6209 H   0  0  0  0  0  0  0  0  0  0  0  0
   23.5414  -20.8405  -11.4767 H   0  0  0  0  0  0  0  0  0  0  0  0
   21.7426  -21.2341  -13.8380 H   0  0  0  0  0  0  0  0  0  0  0  0
   23.0255  -22.3800  -12.8418 H   0  0  0  0  0  0  0  0  0  0  0  0
   22.2378  -21.4312  -13.3368 H   0  0  0  0  0  0  0  0  0  0  0  0
   21.4960  -21.5086  -14.2720 H   0  0  0  0  0  0  0  0  0  0  0  0
   21.1660  -21.5859  -14.7088 H   0  0  0  0  0  0  0  0  0  0  0  0
   20.2591  -21.3684  -15.7013 H   0  0  0  0  0  0  0  0  0  0  0  0
   19.7702  -21.1136  -16.1699 H   0  0  0  0  0  0  0  0  0  0  0  0
   18.7886  -20.2354  -16.9338 H   0  0  0  0  0  0  0  0  0  0  0  0
   18.0065  -19.4326  -17.4926 H   0  0  0  0  0  0  0  0  0  0  0  0
   17.0842  -17.5299  -17.6899 H   0  0  0  0  0  0  0  0  0  0  0  0
   16.9013  -16.3422  -17.3376 H   0  0  0  0  0  0  0  0  0  0  0  0
   16.3154  -15.7268  -17.7498 H   0  0  0  0  0  0  0  0  0  0  0  0
   17.2193  -13.7430  -15.6970 H   0  0  0  0  0  0  0  0  0  0  0  0
   15.4426  -14.6326  -18.2891 H   0  0  0  0  0  0  0  0  0  0  0  0
   16.3361  -12.6530  -16.2279 H   0  0  0  0  0  0  0  0  0  0  0  0
   14.5589  -13.5427  -18.8197 H   0  0  0  0  0  0  0  0  0  0  0  0
   15.4637  -11.5586  -16.7676 H   0  0  0  0  0  0  0  0  0  0  0  0
   14.1887  -11.5217  -18.2922 H   0  0  0  0  0  0  0  0  0  0  0  0
   16.8282  -14.1383  -16.3615 H   0  0  0  0  0  0  0  0  0  0  0  0
   17.2467  -13.2443  -15.4232 H   0  0  0  0  0  0  0  0  0  0  0  0
   17.4106  -12.8744  -15.0462 H   0  0  0  0  0  0  0  0  0  0  0  0
   18.8158  -12.6137  -12.5350 H   0  0  0  0  0  0  0  0  0  0  0  0
   16.8463  -11.3635  -16.3482 H   0  0  0  0  0  0  0  0  0  0  0  0
       nan       nan       nan H   0  0  0  0  0  0  0  0  0  0  0  0
       nan       nan       nan H   0  0  0  0  0  0  0  0  0  0  0  0
       nan       nan       nan H   0  0  0  0  0  0  0  0  0  0  0  0
   19.1397  -12.0211  -11.3874 H   0  0  0  0  0  0  0  0  0  0  0  0
   18.9374  -10.2494  -10.7083 H   0  0  0  0  0  0  0  0  0  0  0  0
   18.1216   -8.6049  -11.5535 H   0  0  0  0  0  0  0  0  0  0  0  0
   17.3256   -7.5595  -12.7255 H   0  0  0  0  0  0  0  0  0  0  0  0
   16.7997   -9.1615  -15.0369 H   0  0  0  0  0  0  0  0  0  0  0  0
   16.6607   -6.6798  -13.7423 H   0  0  0  0  0  0  0  0  0  0  0  0
   16.4891   -8.9996  -15.6368 H   0  0  0  0  0  0  0  0  0  0  0  0
   15.9006   -6.9626  -15.7025 H   0  0  0  0  0  0  0  0  0  0  0  0
   18.5431  -12.0478  -13.2763 H   0  0  0  0  0  0  0  0  0  0  0  0
   19.5519  -12.2533  -12.1545 H   0  0  0  0  0  0  0  0  0  0  0  0
   19.9072  -12.1800  -11.6891 H   0  0  0  0  0  0  0  0  0  0  0  0
   19.9973  -11.6198  -11.3116 H   0  0  0  0  0  0  0  0  0  0  0  0
   21.7024  -13.8795  -10.3352 H   0  0  0  0  0  0  0  0  0  0  0  0
   21.4130  -11.9938   -9.7767 H   0  0  0  0  0  0  0  0  0  0  0  0
  1  2  2  0
  2  3  1  0
  3  4  1  0
  4  5  1  0
  5  6  1  0
  5  7  1  0
  7  8  1  0
  8  9  1  0
  9 10  1  0
 10 11  1  0
 11 12  1  0
 12 13  1  0
 13 14  1  0
 12 15  1  0
 15 16  1  0
 16 17  1  0
 17 18  1  0
 18 19  1  0
 18 20  1  0
 20 21  1  0
 21 22  1  0
 22 23  1  0
 23 24  2  0
 24 25  1  0
 25 26  1  0
 26 27  1  0
 27 28  1  0
 25 29  1  0
 29 30  1  0
 30 31  1  0
 31 32  1  0
 32 33  1  0
 32 34  1  0
 34 35  1  0
 35 36  1  0
 36 37  1  0
 37 38  1  0
 38 39  1  0
 30 40  1  0
 40 41  1  0
 41 42  1  0
 17 43  1  0
 43  7  1  0
 17  8  1  0
 35 31  1  0
 41 10  1  0
 43 15  1  0
 43 16  1  0
 37 35  1  0
  1 44  1  0
  1 45  1  0
  2 46  1  0
  3 47  1  0
  3 48  1  0
  4 49  1  0
  4 50  1  0
  5 51  1  0
  6 52  1  0
  6 53  1  0
  6 54  1  0
  7 55  1  0
  8 56  1  0
  9 57  1  0
  9 58  1  0
 10 59  1  0
 11 60  1  0
 11 61  1  0
 12 62  1  0
 13 63  1  0
 13 64  1  0
 14 65  1  0
 15 66  1  0
 16 67  1  0
 18 68  1  0
 19 69  1  0
 19 70  1  0
 19 71  1  0
 20 72  1  0
 20 73  1  0
 21 74  1  0
 21 75  1  0
 22 76  1  0
 22 77  1  0
 23 78  1  0
 24 79  1  0
 25 80  1  0
 26 81  1  0
 26 82  1  0
 27 83  1  0
 27 84  1  0
 28 85  1  0
 28 86  1  0
 28 87  1  0
 29 88  1  0
 29 89  1  0
 30 90  1  0
 31 91  1  0
 32 92  1  0
 33 93  1  0
 33 94  1  0
 33 95  1  0
 36 96  1  0
 36 97  1  0
 37 98  1  0
 38 99  1  0
 38100  1  0
 39101  1  0
 39102  1  0
 39103  1  0
 40104  1  0
 40105  1  0
 41106  1  0
 42107  1  0
 42108  1  0
 42109  1  0
M  END
