
     RDKit          2D

 22 26  0  0  0  0  0  0  0  0999 V2000
   14.3551  -22.4773   -7.5537 C   0  0  0  0  0  0  0  0  0  0  0  0
   15.5489  -21.9349   -8.2820 C   0  0  0  0  0  0  0  0  0  0  0  0
   16.8883  -21.4350   -8.7359 C   0  0  0  0  0  0  0  0  0  0  0  0
   16.7030  -21.9072   -7.3243 C   0  0  0  0  0  0  0  0  0  0  0  0
   17.6488  -21.9967   -6.1635 C   0  0  0  0  0  0  0  0  0  0  0  0
   16.2224  -22.4324   -6.0040 C   0  0  0  0  0  0  0  0  0  0  0  0
   14.7713  -22.7847   -6.1457 C   0  0  0  0  0  0  0  0  0  0  0  0
   15.4675  -22.9877   -4.8327 C   0  0  0  0  0  0  0  0  0  0  0  0
   16.1637  -23.1906   -3.5197 C   0  0  0  0  0  0  0  0  0  0  0  0
   14.7126  -23.5430   -3.6615 C   0  0  0  0  0  0  0  0  0  0  0  0
   13.6588  -22.2743   -8.8667 H   0  0  0  0  0  0  0  0  0  0  0  0
   13.0156  -22.9772   -7.0998 H   0  0  0  0  0  0  0  0  0  0  0  0
   14.8527  -21.7320   -9.5950 H   0  0  0  0  0  0  0  0  0  0  0  0
   16.5701  -21.0954  -10.1619 H   0  0  0  0  0  0  0  0  0  0  0  0
   18.3383  -21.0529   -8.6945 H   0  0  0  0  0  0  0  0  0  0  0  0
   18.8974  -21.4659   -6.8033 H   0  0  0  0  0  0  0  0  0  0  0  0
   18.1610  -22.2706   -4.7805 H   0  0  0  0  0  0  0  0  0  0  0  0
   13.4318  -23.2847   -5.6919 H   0  0  0  0  0  0  0  0  0  0  0  0
   17.5390  -22.7098   -3.8771 H   0  0  0  0  0  0  0  0  0  0  0  0
   16.3824  -23.5606   -2.0826 H   0  0  0  0  0  0  0  0  0  0  0  0
   14.4273  -24.0353   -2.2735 H   0  0  0  0  0  0  0  0  0  0  0  0
   13.3606  -23.7243   -4.2853 H   0  0  0  0  0  0  0  0  0  0  0  0
  1  2  1  0
  2  3  1  0
  3  4  1  0
  4  5  1  0
  5  6  1  0
  6  7  1  0
  7  8  1  0
  8  9  1  0
  9 10  1  0
  7  1  1  0
 10  8  1  0
  4  2  1  0
  8  6  1  0
  6  4  1  0
  1 11  1  0
  1 12  1  0
  2 13  1  0
  3 14  1  0
  3 15  1  0
  5 16  1  0
  5 17  1  0
  7 18  1  0
  9 19  1  0
  9 20  1  0
 10 21  1  0
 10 22  1  0
M  END
