
     RDKit          2D

112118  0  0  0  0  0  0  0  0999 V2000
   16.5339  -21.8950   -5.9577 C   0  0  0  0  0  0  0  0  0  0  0  0
   15.9677  -21.4932   -7.2873 C   0  0  0  0  0  0  0  0  0  0  0  0
   14.6168  -20.8456   -7.3624 C   0  0  0  0  0  0  0  0  0  0  0  0
   14.7271  -21.0467   -5.8801 C   0  0  0  0  0  0  0  0  0  0  0  0
   14.3684  -21.0230   -4.4238 C   0  0  0  0  0  0  0  0  0  0  0  0
   13.4146  -20.4690   -5.4404 N   0  0  0  0  0  0  0  0  0  0  0  0
   14.0505  -20.4438   -8.6921 C   0  0  0  0  0  0  0  0  0  0  0  0
   13.4843  -20.0420  -10.0217 C   0  0  0  0  0  0  0  0  0  0  0  0
   14.8352  -20.6895   -9.9466 C   0  0  0  0  0  0  0  0  0  0  0  0
   16.1862  -21.3372   -9.8715 C   0  0  0  0  0  0  0  0  0  0  0  0
   16.9709  -21.5829  -11.1260 O   0  0  0  0  0  0  0  0  0  0  0  0
   18.3218  -22.2305  -11.0509 N   0  0  0  0  0  0  0  0  0  0  0  0
   18.9656  -22.4006  -12.3950 Cl  0  0  0  0  0  0  0  0  0  0  0  0
   18.8880  -22.6323   -9.7213 C   0  0  0  0  0  0  0  0  0  0  0  0
   19.2922  -22.6788  -11.1651 C   0  0  0  0  0  0  0  0  0  0  0  0
   20.5874  -23.3310  -10.7814 C   0  0  0  0  0  0  0  0  0  0  0  0
   21.8826  -23.9832  -10.3977 C   0  0  0  0  0  0  0  0  0  0  0  0
   21.4488  -24.7181   -9.1642 C   0  0  0  0  0  0  0  0  0  0  0  0
   21.0150  -25.4530   -7.9306 C   0  0  0  0  0  0  0  0  0  0  0  0
   23.3284  -24.3801  -10.4425 C   0  0  0  0  0  0  0  0  0  0  0  0
   22.7662  -23.4747  -11.4980 C   0  0  0  0  0  0  0  0  0  0  0  0
   23.9931  -23.2541  -12.3324 C   0  0  0  0  0  0  0  0  0  0  0  0
   25.2199  -23.0334  -13.1668 C   0  0  0  0  0  0  0  0  0  0  0  0
   26.4468  -22.8128  -14.0011 C   0  0  0  0  0  0  0  0  0  0  0  0
   27.6736  -22.5922  -14.8354 C   0  0  0  0  0  0  0  0  0  0  0  0
   21.7779  -22.6460  -12.2639 C   0  0  0  0  0  0  0  0  0  0  0  0
   20.7896  -21.8172  -13.0296 C   0  0  0  0  0  0  0  0  0  0  0  0
   19.8013  -20.9885  -13.7954 C   0  0  0  0  0  0  0  0  0  0  0  0
   21.8612  -21.4469  -14.0118 C   0  0  0  0  0  0  0  0  0  0  0  0
   22.9327  -21.0766  -14.9940 C   0  0  0  0  0  0  0  0  0  0  0  0
   24.0043  -20.7063  -15.9761 C   0  0  0  0  0  0  0  0  0  0  0  0
   25.0758  -20.3359  -16.9583 C   0  0  0  0  0  0  0  0  0  0  0  0
   20.8729  -20.6182  -14.7776 C   0  0  0  0  0  0  0  0  0  0  0  0
   19.8845  -19.7894  -15.5434 C   0  0  0  0  0  0  0  0  0  0  0  0
   21.9451  -20.2458  -15.7583 C   0  0  0  0  0  0  0  0  0  0  0  0
   23.0172  -19.8733  -16.7389 C   0  0  0  0  0  0  0  0  0  0  0  0
   20.1831  -23.2845   -9.3376 C   0  0  0  0  0  0  0  0  0  0  0  0
   20.1989  -23.4418   -7.8460 C   0  0  0  0  0  0  0  0  0  0  0  0
   21.5466  -24.0565   -8.0827 O   0  0  0  0  0  0  0  0  0  0  0  0
   22.3568  -24.5567   -6.9238 C   0  0  0  0  0  0  0  0  0  0  0  0
   21.2694  -24.1339   -5.9810 C   0  0  0  0  0  0  0  0  0  0  0  0
   23.4442  -24.9796   -7.8665 C   0  0  0  0  0  0  0  0  0  0  0  0
   18.9135  -22.8868   -7.3078 C   0  0  0  0  0  0  0  0  0  0  0  0
   18.1033  -22.3865   -8.4668 C   0  0  0  0  0  0  0  0  0  0  0  0
   16.7524  -21.7389   -8.5419 C   0  0  0  0  0  0  0  0  0  0  0  0
   15.8900  -21.7249   -4.6137 H   0  0  0  0  0  0  0  0  0  0  0  0
   17.8594  -22.5487   -5.7013 H   0  0  0  0  0  0  0  0  0  0  0  0
   13.3042  -20.2679   -6.9227 H   0  0  0  0  0  0  0  0  0  0  0  0
   16.0073  -21.6969   -5.4462 H   0  0  0  0  0  0  0  0  0  0  0  0
   15.5147  -21.6409   -3.6796 H   0  0  0  0  0  0  0  0  0  0  0  0
   13.5837  -20.7772   -3.1693 H   0  0  0  0  0  0  0  0  0  0  0  0
   12.1060  -19.8156   -5.7734 H   0  0  0  0  0  0  0  0  0  0  0  0
   12.8175  -19.9280   -8.0112 H   0  0  0  0  0  0  0  0  0  0  0  0
   12.1717  -19.4642   -9.5820 H   0  0  0  0  0  0  0  0  0  0  0  0
   13.3740  -19.8408  -11.5041 H   0  0  0  0  0  0  0  0  0  0  0  0
   14.7958  -20.5212  -11.4366 H   0  0  0  0  0  0  0  0  0  0  0  0
   15.7744  -21.0012  -11.2743 H   0  0  0  0  0  0  0  0  0  0  0  0
   19.8513  -22.8045  -12.5513 H   0  0  0  0  0  0  0  0  0  0  0  0
   18.1333  -22.0573  -11.8867 H   0  0  0  0  0  0  0  0  0  0  0  0
   20.6662  -23.2183  -12.2751 H   0  0  0  0  0  0  0  0  0  0  0  0
   22.6851  -25.5647   -9.2338 H   0  0  0  0  0  0  0  0  0  0  0  0
   20.1443  -24.0745   -8.7982 H   0  0  0  0  0  0  0  0  0  0  0  0
   20.2573  -26.0373   -6.7753 H   0  0  0  0  0  0  0  0  0  0  0  0
   22.2603  -26.1476   -7.4652 H   0  0  0  0  0  0  0  0  0  0  0  0
   19.5808  -25.0140   -7.9510 H   0  0  0  0  0  0  0  0  0  0  0  0
   23.5737  -25.2767   -9.2653 H   0  0  0  0  0  0  0  0  0  0  0  0
   24.7790  -24.5832  -10.7660 H   0  0  0  0  0  0  0  0  0  0  0  0
   23.3628  -22.3480  -13.3482 H   0  0  0  0  0  0  0  0  0  0  0  0
   24.9224  -24.1064  -11.5200 H   0  0  0  0  0  0  0  0  0  0  0  0
   26.0074  -23.9132  -12.2415 H   0  0  0  0  0  0  0  0  0  0  0  0
   24.5880  -22.1333  -14.1868 H   0  0  0  0  0  0  0  0  0  0  0  0
   26.0892  -21.4416  -14.4931 H   0  0  0  0  0  0  0  0  0  0  0  0
   26.9577  -24.1672  -13.6079 H   0  0  0  0  0  0  0  0  0  0  0  0
   28.9004  -22.3715  -15.6698 H   0  0  0  0  0  0  0  0  0  0  0  0
   28.4584  -23.4810  -13.9167 H   0  0  0  0  0  0  0  0  0  0  0  0
   26.8890  -21.7034  -15.7543 H   0  0  0  0  0  0  0  0  0  0  0  0
   22.7211  -22.1772  -13.3319 H   0  0  0  0  0  0  0  0  0  0  0  0
   20.4990  -22.8050  -11.4963 H   0  0  0  0  0  0  0  0  0  0  0  0
   21.5902  -21.2574  -14.1679 H   0  0  0  0  0  0  0  0  0  0  0  0
   18.6898  -20.2111  -14.4358 H   0  0  0  0  0  0  0  0  0  0  0  0
   20.4474  -20.3459  -14.9869 H   0  0  0  0  0  0  0  0  0  0  0  0
   18.7298  -21.3587  -12.8132 H   0  0  0  0  0  0  0  0  0  0  0  0
   20.7496  -20.6695  -14.6521 H   0  0  0  0  0  0  0  0  0  0  0  0
   22.2329  -20.1834  -15.9749 H   0  0  0  0  0  0  0  0  0  0  0  0
   24.0444  -21.8535  -14.3533 H   0  0  0  0  0  0  0  0  0  0  0  0
   23.3054  -19.8099  -16.9549 H   0  0  0  0  0  0  0  0  0  0  0  0
   25.1151  -21.4864  -15.3377 H   0  0  0  0  0  0  0  0  0  0  0  0
   26.1474  -19.9657  -17.9404 H   0  0  0  0  0  0  0  0  0  0  0  0
   26.0632  -21.1679  -16.1947 H   0  0  0  0  0  0  0  0  0  0  0  0
   24.2265  -19.4651  -17.8359 H   0  0  0  0  0  0  0  0  0  0  0  0
   19.5934  -20.7790  -14.0114 H   0  0  0  0  0  0  0  0  0  0  0  0
   18.8963  -18.9606  -16.3092 H   0  0  0  0  0  0  0  0  0  0  0  0
   20.8275  -19.3213  -16.6119 H   0  0  0  0  0  0  0  0  0  0  0  0
   18.7006  -20.0555  -14.6616 H   0  0  0  0  0  0  0  0  0  0  0  0
   21.0941  -19.3801  -16.6395 H   0  0  0  0  0  0  0  0  0  0  0  0
   23.1641  -20.9575  -15.2509 H   0  0  0  0  0  0  0  0  0  0  0  0
   23.9609  -19.4026  -17.8056 H   0  0  0  0  0  0  0  0  0  0  0  0
   22.0289  -19.0445  -17.5047 H   0  0  0  0  0  0  0  0  0  0  0  0
   24.2356  -20.5873  -16.2332 H   0  0  0  0  0  0  0  0  0  0  0  0
   21.4382  -23.9301   -8.8296 H   0  0  0  0  0  0  0  0  0  0  0  0
   20.3328  -23.6537   -6.3671 H   0  0  0  0  0  0  0  0  0  0  0  0
   23.1670  -25.0570   -5.7647 H   0  0  0  0  0  0  0  0  0  0  0  0
   20.1820  -23.7111   -5.0382 H   0  0  0  0  0  0  0  0  0  0  0  0
   20.7604  -23.1621   -7.0040 H   0  0  0  0  0  0  0  0  0  0  0  0
   21.2082  -24.7934   -4.6352 H   0  0  0  0  0  0  0  0  0  0  0  0
   24.5316  -25.4025   -8.8091 H   0  0  0  0  0  0  0  0  0  0  0  0
   23.9425  -25.9638   -6.8501 H   0  0  0  0  0  0  0  0  0  0  0  0
   23.0821  -24.0543   -8.9901 H   0  0  0  0  0  0  0  0  0  0  0  0
   19.4797  -23.2886   -5.9782 H   0  0  0  0  0  0  0  0  0  0  0  0
   17.9485  -22.5396   -6.2131 H   0  0  0  0  0  0  0  0  0  0  0  0
   17.2994  -22.1302   -7.2266 H   0  0  0  0  0  0  0  0  0  0  0  0
   17.5371  -21.9847   -9.7964 H   0  0  0  0  0  0  0  0  0  0  0  0
  1  2  2  3
  2  3  1  0
  3  4  1  0
  4  5  1  0
  5  6  1  0
  3  7  1  0
  7  8  1  0
  8  9  1  0
  9 10  1  0
 10 11  1  0
 11 12  1  0
 12 13  1  0
 12 14  1  0
 14 15  1  0
 15 16  1  0
 16 17  1  0
 17 18  1  0
 18 19  1  0
 17 20  1  0
 20 21  1  0
 21 22  1  0
 22 23  1  0
 23 24  1  0
 24 25  1  0
 21 26  1  0
 26 27  1  0
 27 28  1  0
 27 29  1  0
 29 30  1  0
 30 31  1  0
 31 32  1  0
 29 33  1  0
 33 34  1  0
 33 35  1  0
 35 36  1  0
 16 37  1  0
 37 38  1  0
 38 39  1  0
 39 40  1  0
 40 41  1  0
 40 42  1  0
 38 43  1  0
 43 44  1  0
 44 45  1  0
 45  2  1  0
  6  4  1  0
  9  7  1  0
 45 10  1  0
 37 14  1  0
 44 14  1  0
 21 17  1  0
  1 46  1  0
  1 47  1  0
  3 48  1  0
  4 49  1  0
  5 50  1  0
  5 51  1  0
  6 52  1  0
  7 53  1  0
  8 54  1  0
  8 55  1  0
  9 56  1  0
 10 57  1  0
 15 58  1  0
 15 59  1  0
 16 60  1  0
 18 61  1  0
 18 62  1  0
 19 63  1  0
 19 64  1  0
 19 65  1  0
 20 66  1  0
 20 67  1  0
 22 68  1  0
 22 69  1  0
 23 70  1  0
 23 71  1  0
 24 72  1  0
 24 73  1  0
 25 74  1  0
 25 75  1  0
 25 76  1  0
 26 77  1  0
 26 78  1  0
 27 79  1  0
 28 80  1  0
 28 81  1  0
 28 82  1  0
 29 83  1  0
 30 84  1  0
 30 85  1  0
 31 86  1  0
 31 87  1  0
 32 88  1  0
 32 89  1  0
 32 90  1  0
 33 91  1  0
 34 92  1  0
 34 93  1  0
 34 94  1  0
 35 95  1  0
 35 96  1  0
 36 97  1  0
 36 98  1  0
 36 99  1  0
 37100  1  0
 38101  1  0
 40102  1  0
 41103  1  0
 41104  1  0
 41105  1  0
 42106  1  0
 42107  1  0
 42108  1  0
 43109  1  0
 43110  1  0
 44111  1  0
 45112  1  0
M  END
