
     RDKit          2D

103112  0  0  0  0  0  0  0  0999 V2000
   19.3779  -20.1242  -17.9433 C   0  0  0  0  0  0  0  0  0  0  0  0
   19.6933  -18.6925  -18.2605 C   0  0  0  0  0  0  0  0  0  0  0  0
   20.0087  -17.2608  -18.5777 C   0  0  0  0  0  0  0  0  0  0  0  0
   20.3241  -15.8291  -18.8951 C   0  0  0  0  0  0  0  0  0  0  0  0
   20.5562  -15.5573  -17.4382 C   0  0  0  0  0  0  0  0  0  0  0  0
   20.8716  -14.1256  -17.7555 Al  0  0  0  0  0  3  0  0  0  0  0  0
   20.2408  -16.9891  -17.1209 C   0  0  0  0  0  0  0  0  0  0  0  0
   20.4729  -16.7174  -15.6641 C   0  0  0  0  0  0  0  0  0  0  0  0
   20.7049  -16.4458  -14.2073 C   0  0  0  0  0  0  0  0  0  0  0  0
   20.9960  -15.8820  -12.8481 C   0  0  0  0  0  0  0  0  0  0  0  0
   20.8450  -16.9875  -11.8456 C   0  0  0  0  0  0  0  0  0  0  0  0
   21.2140  -15.9251  -10.8531 C   0  0  0  0  0  0  0  0  0  0  0  0
   21.5221  -15.2689   -9.5399 C   0  0  0  0  0  0  0  0  0  0  0  0
   21.1667  -16.7255   -9.5852 C   0  0  0  0  0  0  0  0  0  0  0  0
   21.2532  -17.0603   -8.1257 C   0  0  0  0  0  0  0  0  0  0  0  0
   21.3398  -17.3951   -6.6661 C   0  0  0  0  0  0  0  0  0  0  0  0
   20.4605  -18.2346  -12.5853 C   0  0  0  0  0  0  0  0  0  0  0  0
   20.0915  -19.2969  -13.5778 C   0  0  0  0  0  0  0  0  0  0  0  0
   19.7834  -19.9532  -14.8910 N   0  0  0  0  0  0  0  0  0  0  0  0
   19.4280  -21.4097  -14.9364 C   0  0  0  0  0  0  0  0  0  0  0  0
   19.1455  -22.8069  -14.4694 C   0  0  0  0  0  0  0  0  0  0  0  0
   19.5145  -21.7446  -13.4769 C   0  0  0  0  0  0  0  0  0  0  0  0
   19.4672  -22.5449  -12.2090 C   0  0  0  0  0  0  0  0  0  0  0  0
   19.7682  -21.8869  -10.8951 C   0  0  0  0  0  0  0  0  0  0  0  0
   19.4199  -23.3452  -10.9412 C   0  0  0  0  0  0  0  0  0  0  0  0
   19.3726  -24.1455   -9.6735 N   0  0  0  0  0  0  0  0  0  0  0  0
   19.6726  -23.4873   -8.3594 C   0  0  0  0  0  0  0  0  0  0  0  0
   19.9726  -22.8291   -7.0454 C   0  0  0  0  0  0  0  0  0  0  0  0
   20.2726  -22.1710   -5.7313 N   0  0  0  0  0  0  0  0  0  0  0  0
   19.4449  -24.7915   -7.6542 N   0  0  0  0  0  0  0  0  0  0  0  0
   19.5909  -24.8736   -6.1636 C   0  0  0  0  0  0  0  0  0  0  0  0
   19.7369  -24.9557   -4.6729 C   0  0  0  0  0  0  0  0  0  0  0  0
   20.1105  -23.7335   -3.8875 O   0  0  0  0  0  0  0  0  0  0  0  0
   19.2386  -26.3308   -6.2093 N   0  0  0  0  0  0  0  0  0  0  0  0
   17.8578  -26.9078   -6.1058 C   0  0  0  0  0  0  0  0  0  0  0  0
   17.9710  -28.4006   -6.1991 C   0  0  0  0  0  0  0  0  0  0  0  0
   18.7544  -27.1215   -6.2054 C   0  0  0  0  0  0  0  0  0  0  0  0
   20.2051  -27.4671   -6.3665 C   0  0  0  0  0  0  0  0  0  0  0  0
   20.3184  -28.9599   -6.4598 C   0  0  0  0  0  0  0  0  0  0  0  0
   20.8861  -30.3421   -6.5915 N   0  0  0  0  0  0  0  0  0  0  0  0
   19.5053  -30.9191   -6.4880 C   0  0  0  0  0  0  0  0  0  0  0  0
   18.9376  -29.5369   -6.3563 C   0  0  0  0  0  0  0  0  0  0  0  0
   19.1189  -24.0032  -12.2552 C   0  0  0  0  0  0  0  0  0  0  0  0
   20.3739  -17.8997  -14.0448 C   0  0  0  0  0  0  0  0  0  0  0  0
   19.0625  -21.5560  -17.6260 H   0  0  0  0  0  0  0  0  0  0  0  0
   19.1289  -20.3918  -19.3981 H   0  0  0  0  0  0  0  0  0  0  0  0
   19.6635  -19.6842  -16.5380 H   0  0  0  0  0  0  0  0  0  0  0  0
   19.8061  -18.6362  -17.3838 H   0  0  0  0  0  0  0  0  0  0  0  0
   19.4621  -18.9644  -19.7174 H   0  0  0  0  0  0  0  0  0  0  0  0
   19.7766  -17.5325  -20.0346 H   0  0  0  0  0  0  0  0  0  0  0  0
   20.0920  -16.1008  -20.3519 H   0  0  0  0  0  0  0  0  0  0  0  0
   20.6089  -14.4411  -19.3875 H   0  0  0  0  0  0  0  0  0  0  0  0
   20.7149  -15.2950  -16.6072 H   0  0  0  0  0  0  0  0  0  0  0  0
   21.2269  -13.1737  -16.6521 H   0  0  0  0  0  0  0  0  0  0  0  0
   20.8793  -13.4817  -19.1102 H   0  0  0  0  0  0  0  0  0  0  0  0
   20.0726  -17.8087  -16.8302 H   0  0  0  0  0  0  0  0  0  0  0  0
   20.1434  -18.1745  -15.5281 H   0  0  0  0  0  0  0  0  0  0  0  0
   20.6674  -15.8571  -15.7444 H   0  0  0  0  0  0  0  0  0  0  0  0
   20.9874  -15.0485  -14.6743 H   0  0  0  0  0  0  0  0  0  0  0  0
   21.2177  -14.6026  -13.5993 H   0  0  0  0  0  0  0  0  0  0  0  0
   21.2073  -15.3085  -12.2070 H   0  0  0  0  0  0  0  0  0  0  0  0
   20.7254  -18.0059  -10.7509 H   0  0  0  0  0  0  0  0  0  0  0  0
   21.3416  -15.1771  -11.3098 H   0  0  0  0  0  0  0  0  0  0  0  0
   21.8046  -13.8717  -10.0069 H   0  0  0  0  0  0  0  0  0  0  0  0
   21.7700  -14.9225   -8.1016 H   0  0  0  0  0  0  0  0  0  0  0  0
   20.7865  -18.1260   -9.9646 H   0  0  0  0  0  0  0  0  0  0  0  0
   20.8813  -18.4813   -8.4296 H   0  0  0  0  0  0  0  0  0  0  0  0
   21.6330  -15.6907   -7.6461 H   0  0  0  0  0  0  0  0  0  0  0  0
   21.4263  -17.7300   -5.2065 H   0  0  0  0  0  0  0  0  0  0  0  0
   21.7162  -15.9751   -6.3626 H   0  0  0  0  0  0  0  0  0  0  0  0
   20.9634  -18.8151   -6.9695 H   0  0  0  0  0  0  0  0  0  0  0  0
   20.3866  -19.1180  -11.3753 H   0  0  0  0  0  0  0  0  0  0  0  0
   19.9592  -20.3511  -12.5190 H   0  0  0  0  0  0  0  0  0  0  0  0
   19.8770  -19.0101  -16.0537 H   0  0  0  0  0  0  0  0  0  0  0  0
   19.2180  -21.5808  -16.4117 H   0  0  0  0  0  0  0  0  0  0  0  0
   18.8374  -23.4632  -15.7826 H   0  0  0  0  0  0  0  0  0  0  0  0
   18.9294  -24.0738  -13.6960 H   0  0  0  0  0  0  0  0  0  0  0  0
   19.8995  -20.4845  -12.7599 H   0  0  0  0  0  0  0  0  0  0  0  0
   20.0454  -20.4885  -11.3615 H   0  0  0  0  0  0  0  0  0  0  0  0
   20.0101  -21.5391   -9.4562 H   0  0  0  0  0  0  0  0  0  0  0  0
   19.0253  -25.6041   -9.7198 H   0  0  0  0  0  0  0  0  0  0  0  0
   19.9351  -22.1126   -8.8992 H   0  0  0  0  0  0  0  0  0  0  0  0
   20.1999  -21.5249   -7.7505 H   0  0  0  0  0  0  0  0  0  0  0  0
   19.8679  -23.8108   -5.9160 H   0  0  0  0  0  0  0  0  0  0  0  0
   20.6199  -20.7125   -5.6849 H   0  0  0  0  0  0  0  0  0  0  0  0
   20.2253  -22.9713   -4.4635 H   0  0  0  0  0  0  0  0  0  0  0  0
   19.0798  -25.9069   -8.5883 H   0  0  0  0  0  0  0  0  0  0  0  0
   19.9584  -23.4371   -5.9365 H   0  0  0  0  0  0  0  0  0  0  0  0
   19.5475  -26.1699   -3.8129 H   0  0  0  0  0  0  0  0  0  0  0  0
   17.2661  -25.5359   -5.9724 H   0  0  0  0  0  0  0  0  0  0  0  0
   16.3892  -27.1848   -5.9772 H   0  0  0  0  0  0  0  0  0  0  0  0
   16.4824  -28.5222   -6.0600 H   0  0  0  0  0  0  0  0  0  0  0  0
   17.6050  -26.1718   -6.0406 H   0  0  0  0  0  0  0  0  0  0  0  0
   18.9013  -25.6301   -6.1377 H   0  0  0  0  0  0  0  0  0  0  0  0
   21.4521  -26.6371   -6.4430 H   0  0  0  0  0  0  0  0  0  0  0  0
   21.7708  -28.6063   -6.5826 H   0  0  0  0  0  0  0  0  0  0  0  0
   22.2638  -30.9115   -6.7577 H   0  0  0  0  0  0  0  0  0  0  0  0
   18.1245  -31.4960   -6.3845 H   0  0  0  0  0  0  0  0  0  0  0  0
   20.0730  -32.3012   -6.6196 H   0  0  0  0  0  0  0  0  0  0  0  0
   17.6627  -30.3229   -6.2747 H   0  0  0  0  0  0  0  0  0  0  0  0
   18.8417  -25.4016  -11.7888 H   0  0  0  0  0  0  0  0  0  0  0  0
   18.8770  -24.3510  -13.6942 H   0  0  0  0  0  0  0  0  0  0  0  0
   20.1060  -18.3441  -15.4522 H   0  0  0  0  0  0  0  0  0  0  0  0
  1  2  1  0
  2  3  1  0
  3  4  1  0
  4  5  1  0
  5  6  1  0
  5  7  1  0
  7  8  1  0
  8  9  1  0
  9 10  1  0
 10 11  1  0
 11 12  1  0
 12 13  1  0
 13 14  1  0
 14 15  1  0
 15 16  1  0
 11 17  1  0
 17 18  1  0
 18 19  1  0
 19 20  1  0
 20 21  1  0
 21 22  1  0
 22 23  1  0
 23 24  1  0
 24 25  1  0
 25 26  1  0
 26 27  1  0
 27 28  1  0
 28 29  1  0
 27 30  1  0
 30 31  1  0
 31 32  1  0
 32 33  2  0
 31 34  1  0
 34 35  1  0
 35 36  1  0
 36 37  1  0
 37 38  1  0
 38 39  1  0
 39 40  1  0
 40 41  1  0
 41 42  1  0
 25 43  1  0
 18 44  1  0
  7  3  1  0
 44  9  1  0
 14 12  1  0
 44 17  1  0
 22 20  1  0
 25 23  1  0
 38 34  1  0
 42 39  1  0
 43 23  1  0
 42 36  1  0
  1 45  1  0
  1 46  1  0
  1 47  1  0
  2 48  1  0
  2 49  1  0
  3 50  1  0
  4 51  1  0
  4 52  1  0
  5 53  1  0
  6 54  1  0
  6 55  1  0
  7 56  1  0
  8 57  1  0
  8 58  1  0
  9 59  1  0
 10 60  1  0
 10 61  1  0
 11 62  1  0
 12 63  1  0
 13 64  1  0
 13 65  1  0
 14 66  1  0
 15 67  1  0
 15 68  1  0
 16 69  1  0
 16 70  1  0
 16 71  1  0
 17 72  1  0
 18 73  1  0
 19 74  1  0
 20 75  1  0
 21 76  1  0
 21 77  1  0
 22 78  1  0
 24 79  1  0
 24 80  1  0
 26 81  1  0
 27 82  1  0
 28 83  1  0
 28 84  1  0
 29 85  1  0
 29 86  1  0
 30 87  1  0
 31 88  1  0
 32 89  1  0
 35 90  1  0
 35 91  1  0
 36 92  1  0
 37 93  1  0
 37 94  1  0
 38 95  1  0
 39 96  1  0
 40 97  1  0
 41 98  1  0
 41 99  1  0
 42100  1  0
 43101  1  0
 43102  1  0
 44103  1  0
M  END
