
     RDKit          2D

 67 73  0  0  0  0  0  0  0  0999 V2000
   24.9305  -21.4311  -14.7220 C   0  0  0  0  0  0  0  0  0  0  0  0
   23.6719  -21.4244  -13.9059 C   0  0  0  0  0  0  0  0  0  0  0  0
   22.4134  -21.4176  -13.0898 C   0  0  0  0  0  0  0  0  0  0  0  0
   21.1548  -21.4108  -12.2737 N   0  0  0  0  0  0  0  0  0  0  0  0
   19.9578  -20.6411  -12.7478 C   0  0  0  0  0  0  0  0  0  0  0  0
   20.7207  -20.2026  -13.9625 C   0  0  0  0  0  0  0  0  0  0  0  0
   21.4837  -19.7640  -15.1772 C   0  0  0  0  0  0  0  0  0  0  0  0
   22.2467  -19.3255  -16.3919 C   0  0  0  0  0  0  0  0  0  0  0  0
   19.1948  -21.0796  -11.5331 C   0  0  0  0  0  0  0  0  0  0  0  0
   18.4318  -21.5182  -10.3183 C   0  0  0  0  0  0  0  0  0  0  0  0
   19.4778  -22.3533   -9.6411 C   0  0  0  0  0  0  0  0  0  0  0  0
   19.1701  -23.0289   -8.3378 C   0  0  0  0  0  0  0  0  0  0  0  0
   18.1241  -22.1939   -9.0149 C   0  0  0  0  0  0  0  0  0  0  0  0
   16.7705  -22.0345   -8.3888 C   0  0  0  0  0  0  0  0  0  0  0  0
   15.4168  -21.8751   -7.7625 C   0  0  0  0  0  0  0  0  0  0  0  0
   14.7622  -20.9877   -8.7794 C   0  0  0  0  0  0  0  0  0  0  0  0
   14.1076  -20.1003   -9.7964 O   0  0  0  0  0  0  0  0  0  0  0  0
   15.6012  -22.7071   -6.5282 C   0  0  0  0  0  0  0  0  0  0  0  0
   14.2904  -22.0239   -6.7832 C   0  0  0  0  0  0  0  0  0  0  0  0
   14.4748  -22.8559   -5.5488 C   0  0  0  0  0  0  0  0  0  0  0  0
   13.3485  -23.0047   -4.5694 C   0  0  0  0  0  0  0  0  0  0  0  0
   14.6592  -23.6879   -4.3144 C   0  0  0  0  0  0  0  0  0  0  0  0
   16.0769  -24.1363   -4.5119 O   0  0  0  0  0  0  0  0  0  0  0  0
   14.3513  -24.3642   -3.0114 C   0  0  0  0  0  0  0  0  0  0  0  0
   15.7336  -24.9461   -2.9867 C   0  0  0  0  0  0  0  0  0  0  0  0
   15.4256  -25.6224   -1.6838 C   0  0  0  0  0  0  0  0  0  0  0  0
   14.4677  -25.9172   -0.5677 C   0  0  0  0  0  0  0  0  0  0  0  0
   14.0434  -25.0406   -1.7084 C   0  0  0  0  0  0  0  0  0  0  0  0
   26.1891  -21.4380  -15.5381 H   0  0  0  0  0  0  0  0  0  0  0  0
   25.4204  -20.2252  -13.9765 H   0  0  0  0  0  0  0  0  0  0  0  0
   24.4406  -22.6371  -15.4674 H   0  0  0  0  0  0  0  0  0  0  0  0
   23.3426  -22.6270  -14.7399 H   0  0  0  0  0  0  0  0  0  0  0  0
   24.1582  -20.2137  -13.1659 H   0  0  0  0  0  0  0  0  0  0  0  0
   22.2370  -22.0547  -13.5352 H   0  0  0  0  0  0  0  0  0  0  0  0
   22.9024  -20.2105  -12.3456 H   0  0  0  0  0  0  0  0  0  0  0  0
   21.4381  -22.2594  -11.0698 H   0  0  0  0  0  0  0  0  0  0  0  0
   18.7607  -19.8715  -13.2218 H   0  0  0  0  0  0  0  0  0  0  0  0
   19.5231  -19.4343  -14.4374 H   0  0  0  0  0  0  0  0  0  0  0  0
   21.4603  -20.5002  -13.9583 H   0  0  0  0  0  0  0  0  0  0  0  0
   22.7674  -20.4682  -14.8509 H   0  0  0  0  0  0  0  0  0  0  0  0
   20.2842  -19.0008  -15.6551 H   0  0  0  0  0  0  0  0  0  0  0  0
   23.0097  -18.8870  -17.6067 H   0  0  0  0  0  0  0  0  0  0  0  0
   21.0434  -18.5717  -16.8755 H   0  0  0  0  0  0  0  0  0  0  0  0
   23.4500  -20.0794  -15.9083 H   0  0  0  0  0  0  0  0  0  0  0  0
   20.2881  -21.9016  -10.9173 H   0  0  0  0  0  0  0  0  0  0  0  0
   17.9996  -20.3054  -12.0042 H   0  0  0  0  0  0  0  0  0  0  0  0
   17.1208  -20.8355  -10.5737 H   0  0  0  0  0  0  0  0  0  0  0  0
   20.8733  -22.6178  -10.1233 H   0  0  0  0  0  0  0  0  0  0  0  0
   20.4811  -23.7116   -8.0825 H   0  0  0  0  0  0  0  0  0  0  0  0
   18.4071  -23.4675   -7.1230 H   0  0  0  0  0  0  0  0  0  0  0  0
   17.1967  -22.9066   -7.2452 H   0  0  0  0  0  0  0  0  0  0  0  0
   16.5123  -21.1883   -9.6001 H   0  0  0  0  0  0  0  0  0  0  0  0
   13.5037  -20.9807   -7.9633 H   0  0  0  0  0  0  0  0  0  0  0  0
   15.9315  -20.8864   -9.7135 H   0  0  0  0  0  0  0  0  0  0  0  0
   14.8709  -19.6613  -11.0107 H   0  0  0  0  0  0  0  0  0  0  0  0
   16.9684  -23.3162   -6.4308 H   0  0  0  0  0  0  0  0  0  0  0  0
   12.9796  -21.3406   -7.0382 H   0  0  0  0  0  0  0  0  0  0  0  0
   12.3027  -22.1690   -5.2462 H   0  0  0  0  0  0  0  0  0  0  0  0
   12.4451  -23.3464   -3.4217 H   0  0  0  0  0  0  0  0  0  0  0  0
   16.9805  -23.7940   -5.6592 H   0  0  0  0  0  0  0  0  0  0  0  0
   12.9417  -23.8692   -2.8770 H   0  0  0  0  0  0  0  0  0  0  0  0
   17.1159  -25.5280   -2.9621 H   0  0  0  0  0  0  0  0  0  0  0  0
   16.3669  -24.4307   -4.2450 H   0  0  0  0  0  0  0  0  0  0  0  0
   16.6811  -26.3596   -1.3227 H   0  0  0  0  0  0  0  0  0  0  0  0
   15.3287  -26.7977    0.2887 H   0  0  0  0  0  0  0  0  0  0  0  0
   13.2109  -25.9062    0.2509 H   0  0  0  0  0  0  0  0  0  0  0  0
   12.6284  -24.6535   -1.3951 H   0  0  0  0  0  0  0  0  0  0  0  0
  1  2  1  0
  2  3  1  0
  3  4  1  0
  4  5  1  0
  5  6  1  0
  6  7  1  0
  7  8  1  0
  5  9  1  0
  9 10  1  0
 10 11  1  0
 11 12  1  0
 12 13  1  0
 13 14  1  0
 14 15  1  0
 15 16  1  0
 16 17  1  0
 15 18  1  0
 18 19  1  0
 19 20  1  0
 20 21  1  0
 21 22  1  0
 22 23  1  0
 22 24  1  0
 24 25  1  0
 25 26  1  0
 26 27  1  0
 27 28  1  0
 13 10  1  0
 19 15  1  0
 22 20  1  0
 28 24  1  0
 13 11  1  0
 20 18  1  0
 28 26  1  0
  1 29  1  0
  1 30  1  0
  1 31  1  0
  2 32  1  0
  2 33  1  0
  3 34  1  0
  3 35  1  0
  4 36  1  0
  5 37  1  0
  6 38  1  0
  6 39  1  0
  7 40  1  0
  7 41  1  0
  8 42  1  0
  8 43  1  0
  8 44  1  0
  9 45  1  0
  9 46  1  0
 10 47  1  0
 11 48  1  0
 12 49  1  0
 12 50  1  0
 14 51  1  0
 14 52  1  0
 16 53  1  0
 16 54  1  0
 17 55  1  0
 18 56  1  0
 19 57  1  0
 21 58  1  0
 21 59  1  0
 23 60  1  0
 24 61  1  0
 25 62  1  0
 25 63  1  0
 26 64  1  0
 27 65  1  0
 27 66  1  0
 28 67  1  0
M  END
