
     RDKit          2D

 57 62  0  0  0  0  0  0  0  0999 V2000
    0.5953   28.9815    4.8216 C   0  0  0  0  0  0  0  0  0  0  0  0
    0.2832   27.5941    4.3447 C   0  0  0  0  0  0  0  0  0  0  0  0
    1.2303   26.8878    3.4206 C   0  0  0  0  0  0  0  0  0  0  0  0
    2.1775   26.1815    2.4965 C   0  0  0  0  0  0  0  0  0  0  0  0
    1.4484   24.8826    2.3191 C   0  0  0  0  0  0  0  0  0  0  0  0
    3.3779   25.9263    1.6340 C   0  0  0  0  0  0  0  0  0  0  0  0
    3.2355   27.2351    2.3530 C   0  0  0  0  0  0  0  0  0  0  0  0
    4.4949   27.9162    1.9058 C   0  0  0  0  0  0  0  0  0  0  0  0
    2.6558   28.3073    3.2272 O   0  0  0  0  0  0  0  0  0  0  0  0
   -0.9762   26.9129    4.7919 C   0  0  0  0  0  0  0  0  0  0  0  0
   -1.3424   28.1214    5.6016 N   0  0  0  0  0  0  0  0  0  0  0  0
   -2.2356   26.2318    5.2391 C   0  0  0  0  0  0  0  0  0  0  0  0
   -3.4950   25.5506    5.6863 C   0  0  0  0  0  0  0  0  0  0  0  0
   -2.9152   24.4783    4.8120 C   0  0  0  0  0  0  0  0  0  0  0  0
   -2.3355   23.4062    3.9378 C   0  0  0  0  0  0  0  0  0  0  0  0
   -4.3733   21.8807    4.4573 C   0  0  0  0  0  0  0  0  0  0  0  0
   -4.9531   22.9529    5.3316 C   0  0  0  0  0  0  0  0  0  0  0  0
   -5.5328   24.0250    6.2058 C   0  0  0  0  0  0  0  0  0  0  0  0
   -4.8038   25.3239    6.3832 C   0  0  0  0  0  0  0  0  0  0  0  0
   -4.7176   26.6928    6.9903 C   0  0  0  0  0  0  0  0  0  0  0  0
   -3.4136   27.1537    6.4094 C   0  0  0  0  0  0  0  0  0  0  0  0
   -5.8941   25.8120    7.2903 C   0  0  0  0  0  0  0  0  0  0  0  0
   -6.6694   26.7150    8.2033 C   0  0  0  0  0  0  0  0  0  0  0  0
   -3.6443   23.1795    4.6347 C   0  0  0  0  0  0  0  0  0  0  0  0
    1.8547   29.6628    4.3745 H   0  0  0  0  0  0  0  0  0  0  0  0
   -0.0094   29.5988    5.4919 H   0  0  0  0  0  0  0  0  0  0  0  0
    1.6148   28.1803    3.3570 H   0  0  0  0  0  0  0  0  0  0  0  0
    0.5929   25.9092    3.7557 H   0  0  0  0  0  0  0  0  0  0  0  0
    0.7194   23.5838    2.1417 H   0  0  0  0  0  0  0  0  0  0  0  0
    2.5376   24.1061    2.1372 H   0  0  0  0  0  0  0  0  0  0  0  0
    0.3242   25.3251    2.4478 H   0  0  0  0  0  0  0  0  0  0  0  0
    3.2388   24.6853    1.1211 H   0  0  0  0  0  0  0  0  0  0  0  0
    4.5376   25.9786    0.9449 H   0  0  0  0  0  0  0  0  0  0  0  0
    5.7543   28.5974    1.4586 H   0  0  0  0  0  0  0  0  0  0  0  0
    4.1265   29.1265    2.7117 H   0  0  0  0  0  0  0  0  0  0  0  0
    4.9621   26.9099    1.1368 H   0  0  0  0  0  0  0  0  0  0  0  0
    1.3470   28.0806    3.9241 H   0  0  0  0  0  0  0  0  0  0  0  0
   -0.6101   25.7044    3.9822 H   0  0  0  0  0  0  0  0  0  0  0  0
   -0.7652   29.0444    5.7042 H   0  0  0  0  0  0  0  0  0  0  0  0
   -2.3407   28.2739    6.2770 H   0  0  0  0  0  0  0  0  0  0  0  0
   -1.8701   25.0238    4.4283 H   0  0  0  0  0  0  0  0  0  0  0  0
   -2.6010   27.4396    6.0498 H   0  0  0  0  0  0  0  0  0  0  0  0
   -3.3902   26.3662    6.0152 H   0  0  0  0  0  0  0  0  0  0  0  0
   -4.1971   23.8832    5.3146 H   0  0  0  0  0  0  0  0  0  0  0  0
   -1.2451   22.9180    3.0307 H   0  0  0  0  0  0  0  0  0  0  0  0
   -4.4596   20.5117    3.8501 H   0  0  0  0  0  0  0  0  0  0  0  0
   -6.1297   22.0720    5.6315 H   0  0  0  0  0  0  0  0  0  0  0  0
   -6.5835   24.5805    7.1209 H   0  0  0  0  0  0  0  0  0  0  0  0
   -6.5909   22.9714    6.3493 H   0  0  0  0  0  0  0  0  0  0  0  0
   -4.9280   27.9757    7.7387 H   0  0  0  0  0  0  0  0  0  0  0  0
   -2.3794   27.6535    6.0134 H   0  0  0  0  0  0  0  0  0  0  0  0
   -3.5560   28.4625    7.1284 H   0  0  0  0  0  0  0  0  0  0  0  0
   -2.9600   25.9954    5.5714 H   0  0  0  0  0  0  0  0  0  0  0  0
   -6.9102   24.7126    7.3859 H   0  0  0  0  0  0  0  0  0  0  0  0
   -7.4447   27.6179    9.1164 H   0  0  0  0  0  0  0  0  0  0  0  0
   -7.7232   25.6582    8.3537 H   0  0  0  0  0  0  0  0  0  0  0  0
   -5.7180   27.8740    8.1654 H   0  0  0  0  0  0  0  0  0  0  0  0
  1  2  2  3
  2  3  1  0
  3  4  1  0
  4  5  1  0
  4  6  1  0
  6  7  1  0
  7  8  1  0
  7  9  1  0
  2 10  1  0
 10 11  1  0
 10 12  1  0
 12 13  1  0
 13 14  1  0
 14 15  1  0
 15 16  1  0
 16 17  1  0
 17 18  1  0
 18 19  1  0
 19 20  1  0
 20 21  1  0
 20 22  1  0
 22 23  1  0
 17 24  1  0
  7  4  1  0
 19 13  1  0
 24 14  1  0
 24 15  1  0
 24 16  1  0
 22 19  1  0
  1 25  1  0
  1 26  1  0
  3 27  1  0
  3 28  1  0
  5 29  1  0
  5 30  1  0
  5 31  1  0
  6 32  1  0
  6 33  1  0
  8 34  1  0
  8 35  1  0
  8 36  1  0
  9 37  1  0
 10 38  1  0
 11 39  1  0
 11 40  1  0
 12 41  1  0
 12 42  1  0
 13 43  1  0
 14 44  1  0
 15 45  1  0
 16 46  1  0
 17 47  1  0
 18 48  1  0
 18 49  1  0
 20 50  1  0
 21 51  1  0
 21 52  1  0
 21 53  1  0
 22 54  1  0
 23 55  1  0
 23 56  1  0
 23 57  1  0
M  END
