
     RDKit          2D

 40 39  0  0  0  0  0  0  0  0999 V2000
   22.0035  -22.0069   -7.9148 C   0  0  0  0  0  0  0  0  0  0  0  0
   20.5924  -22.2822   -7.4869 C   0  0  0  0  0  0  0  0  0  0  0  0
   19.8527  -23.4576   -8.0536 C   0  0  0  0  0  0  0  0  0  0  0  0
   19.1129  -24.6331   -8.6204 C   0  0  0  0  0  0  0  0  0  0  0  0
   18.3732  -25.8085   -9.1871 C   0  0  0  0  0  0  0  0  0  0  0  0
   17.9113  -24.2734   -7.7979 C   0  0  0  0  0  0  0  0  0  0  0  0
   16.7096  -23.9138   -6.9752 Se  0  0  0  0  0  2  0  0  0  0  0  0
   16.8837  -23.2219   -5.6558 C   0  0  0  0  0  0  0  0  0  0  0  0
   18.2594  -22.8897   -5.1589 O   0  0  0  0  0  0  0  0  0  0  0  0
   15.6820  -22.8622   -4.8332 C   0  0  0  0  0  0  0  0  0  0  0  0
   15.8561  -22.1704   -3.5138 C   0  0  0  0  0  0  0  0  0  0  0  0
   14.3062  -23.1945   -5.3301 C   0  0  0  0  0  0  0  0  0  0  0  0
   12.9305  -23.5268   -5.8270 C   0  0  0  0  0  0  0  0  0  0  0  0
   11.5547  -23.8590   -6.3239 C   0  0  0  0  0  0  0  0  0  0  0  0
   13.4911  -24.6764   -6.6105 C   0  0  0  0  0  0  0  0  0  0  0  0
   14.0518  -25.8260   -7.3941 C   0  0  0  0  0  0  0  0  0  0  0  0
   22.7432  -20.8314   -7.3480 H   0  0  0  0  0  0  0  0  0  0  0  0
   22.6748  -22.9069   -8.9094 H   0  0  0  0  0  0  0  0  0  0  0  0
   19.9211  -21.3822   -6.4923 H   0  0  0  0  0  0  0  0  0  0  0  0
   21.0545  -23.8174   -8.8759 H   0  0  0  0  0  0  0  0  0  0  0  0
   19.2016  -23.1622   -7.5309 H   0  0  0  0  0  0  0  0  0  0  0  0
   20.3146  -24.9927   -9.4429 H   0  0  0  0  0  0  0  0  0  0  0  0
   17.6335  -26.9839   -9.7539 H   0  0  0  0  0  0  0  0  0  0  0  0
   19.5773  -26.1722  -10.0044 H   0  0  0  0  0  0  0  0  0  0  0  0
   17.6143  -25.6799   -8.7489 H   0  0  0  0  0  0  0  0  0  0  0  0
   18.3493  -23.9018   -7.1236 H   0  0  0  0  0  0  0  0  0  0  0  0
   17.3003  -24.5932   -8.3536 H   0  0  0  0  0  0  0  0  0  0  0  0
   14.6544  -21.8107   -2.6912 H   0  0  0  0  0  0  0  0  0  0  0  0
   17.2318  -21.8381   -3.0169 H   0  0  0  0  0  0  0  0  0  0  0  0
   13.7474  -22.0371   -4.5567 H   0  0  0  0  0  0  0  0  0  0  0  0
   15.0287  -24.3028   -6.0371 H   0  0  0  0  0  0  0  0  0  0  0  0
   12.3698  -22.3771   -5.0434 H   0  0  0  0  0  0  0  0  0  0  0  0
   10.1789  -24.1913   -6.8207 H   0  0  0  0  0  0  0  0  0  0  0  0
   10.9940  -22.7094   -5.5402 H   0  0  0  0  0  0  0  0  0  0  0  0
   11.7843  -24.5567   -6.8190 H   0  0  0  0  0  0  0  0  0  0  0  0
   12.7249  -24.9552   -6.9564 H   0  0  0  0  0  0  0  0  0  0  0  0
   14.9255  -24.4845   -6.2159 H   0  0  0  0  0  0  0  0  0  0  0  0
   14.6124  -26.9757   -8.1777 H   0  0  0  0  0  0  0  0  0  0  0  0
   12.7495  -26.5570   -7.2535 H   0  0  0  0  0  0  0  0  0  0  0  0
   15.3540  -25.0951   -7.5348 H   0  0  0  0  0  0  0  0  0  0  0  0
  1  2  2  3
  2  3  1  0
  3  4  1  0
  4  5  1  0
  4  6  1  0
  6  7  1  0
  7  8  1  0
  8  9  2  0
  8 10  1  0
 10 11  2  3
 10 12  1  0
 12 13  1  0
 13 14  1  0
 13 15  1  0
 15 16  1  0
  1 17  1  0
  1 18  1  0
  2 19  1  0
  3 20  1  0
  3 21  1  0
  4 22  1  0
  5 23  1  0
  5 24  1  0
  5 25  1  0
  6 26  1  0
  6 27  1  0
 11 28  1  0
 11 29  1  0
 12 30  1  0
 12 31  1  0
 13 32  1  0
 14 33  1  0
 14 34  1  0
 14 35  1  0
 15 36  1  0
 15 37  1  0
 16 38  1  0
 16 39  1  0
 16 40  1  0
M  END
