
     RDKit          2D

102110  0  0  0  0  0  0  0  0999 V2000
   -5.3589   28.7186    4.6224 C   0  0  0  0  0  0  0  0  0  0  0  0
   -3.9197   28.3004    4.6836 C   0  0  0  0  0  0  0  0  0  0  0  0
   -2.4804   27.8824    4.7448 C   0  0  0  0  0  0  0  0  0  0  0  0
   -3.7179   27.2984    5.3593 C   0  0  0  0  0  0  0  0  0  0  0  0
   -4.0101   26.1200    6.2402 C   0  0  0  0  0  0  0  0  0  0  0  0
   -3.1857   25.0374    6.8715 C   0  0  0  0  0  0  0  0  0  0  0  0
   -3.0906   23.8079    7.7254 O   0  0  0  0  0  0  0  0  0  0  0  0
   -4.3281   23.2239    8.3399 C   0  0  0  0  0  0  0  0  0  0  0  0
   -5.5655   22.6400    8.9544 As  0  0  0  0  0  3  0  0  0  0  0  0
   -5.4703   21.4104    9.8084 C   0  0  0  0  0  0  0  0  0  0  0  0
   -5.3751   20.1809   10.6623 N   0  0  0  0  0  0  0  0  0  0  0  0
   -4.0425   19.5353   10.9017 C   0  0  0  0  0  0  0  0  0  0  0  0
   -2.7099   18.8898   11.1412 C   0  0  0  0  0  0  0  0  0  0  0  0
   -2.6744   17.9302    9.9889 N   0  0  0  0  0  0  0  0  0  0  0  0
   -1.4902   17.0293    9.7992 C   0  0  0  0  0  0  0  0  0  0  0  0
   -1.3896   18.5775   11.7809 C   0  0  0  0  0  0  0  0  0  0  0  0
   -2.2826   19.6252   12.3768 C   0  0  0  0  0  0  0  0  0  0  0  0
   -1.4439   20.0477   13.5464 C   0  0  0  0  0  0  0  0  0  0  0  0
   -1.7277   24.6848    6.8833 O   0  0  0  0  0  0  0  0  0  0  0  0
   -0.4903   25.2688    6.2688 C   0  0  0  0  0  0  0  0  0  0  0  0
   -1.1560   26.4151    5.5666 C   0  0  0  0  0  0  0  0  0  0  0  0
    0.1149   28.2313    4.0753 C   0  0  0  0  0  0  0  0  0  0  0  0
    0.0753   29.4586    3.2139 C   0  0  0  0  0  0  0  0  0  0  0  0
    0.2577   30.6601    2.3346 C   0  0  0  0  0  0  0  0  0  0  0  0
   -0.9291   31.4891    1.9417 C   0  0  0  0  0  0  0  0  0  0  0  0
   -0.2530   32.5280    1.0970 C   0  0  0  0  0  0  0  0  0  0  0  0
    0.4230   33.5669    0.2522 C   0  0  0  0  0  0  0  0  0  0  0  0
    1.0990   34.6058   -0.5926 C   0  0  0  0  0  0  0  0  0  0  0  0
    1.7451   32.8990    0.4886 C   0  0  0  0  0  0  0  0  0  0  0  0
    3.0673   32.2312    0.7250 C   0  0  0  0  0  0  0  0  0  0  0  0
    4.3895   31.5635    0.9613 O   0  0  0  0  0  0  0  0  0  0  0  0
   -1.1115   30.2876    2.8210 C   0  0  0  0  0  0  0  0  0  0  0  0
   -2.5518   30.0940    3.1925 N   0  0  0  0  0  0  0  0  0  0  0  0
   -3.1610   29.0235    4.0487 C   0  0  0  0  0  0  0  0  0  0  0  0
   -1.0225   27.5298    4.7566 C   0  0  0  0  0  0  0  0  0  0  0  0
   -0.1982   26.4472    5.3879 C   0  0  0  0  0  0  0  0  0  0  0  0
   -1.5326   26.0096    5.9147 C   0  0  0  0  0  0  0  0  0  0  0  0
    0.9183   25.5526    5.8386 C   0  0  0  0  0  0  0  0  0  0  0  0
    1.6317   24.4233    6.5209 C   0  0  0  0  0  0  0  0  0  0  0  0
    2.3450   23.2939    7.2034 C   0  0  0  0  0  0  0  0  0  0  0  0
    2.9360   24.9092    5.9617 C   0  0  0  0  0  0  0  0  0  0  0  0
    4.4055   24.9795    5.6696 C   0  0  0  0  0  0  0  0  0  0  0  0
    3.8650   23.8812    6.5365 C   0  0  0  0  0  0  0  0  0  0  0  0
    5.1348   23.1460    6.8477 C   0  0  0  0  0  0  0  0  0  0  0  0
   -6.7982   29.1367    4.5612 H   0  0  0  0  0  0  0  0  0  0  0  0
   -4.9530   28.0752    5.0113 H   0  0  0  0  0  0  0  0  0  0  0  0
   -5.1208   25.3910    6.9366 H   0  0  0  0  0  0  0  0  0  0  0  0
   -5.3427   26.7655    6.0008 H   0  0  0  0  0  0  0  0  0  0  0  0
   -4.5944   24.7535    7.3017 H   0  0  0  0  0  0  0  0  0  0  0  0
   -3.5036   22.1420    8.9721 H   0  0  0  0  0  0  0  0  0  0  0  0
   -5.2972   24.2266    7.7873 H   0  0  0  0  0  0  0  0  0  0  0  0
   -6.8981   23.2855    8.7150 H   0  0  0  0  0  0  0  0  0  0  0  0
   -5.2621   22.2686   11.0208 H   0  0  0  0  0  0  0  0  0  0  0  0
   -5.6785   20.5521    8.5959 H   0  0  0  0  0  0  0  0  0  0  0  0
   -6.6126   19.5969   11.2768 H   0  0  0  0  0  0  0  0  0  0  0  0
   -3.8429   20.3970   12.1133 H   0  0  0  0  0  0  0  0  0  0  0  0
   -4.4031   18.7589    9.6700 H   0  0  0  0  0  0  0  0  0  0  0  0
   -3.8232   17.8716    9.0261 H   0  0  0  0  0  0  0  0  0  0  0  0
   -0.3060   16.1283    9.6097 H   0  0  0  0  0  0  0  0  0  0  0  0
   -0.8307   18.0749    8.9497 H   0  0  0  0  0  0  0  0  0  0  0  0
   -2.0005   15.8816   10.6193 H   0  0  0  0  0  0  0  0  0  0  0  0
   -0.7465   17.5018   10.9569 H   0  0  0  0  0  0  0  0  0  0  0  0
   -0.1635   18.5048   12.6421 H   0  0  0  0  0  0  0  0  0  0  0  0
   -3.3796   20.5910   12.7138 H   0  0  0  0  0  0  0  0  0  0  0  0
   -0.6052   20.4702   14.7162 H   0  0  0  0  0  0  0  0  0  0  0  0
   -2.5219   20.9982   13.9760 H   0  0  0  0  0  0  0  0  0  0  0  0
   -0.2717   19.1558   13.2626 H   0  0  0  0  0  0  0  0  0  0  0  0
   -2.4970   25.9890    6.0863 H   0  0  0  0  0  0  0  0  0  0  0  0
   -2.2182   27.3536    5.0760 H   0  0  0  0  0  0  0  0  0  0  0  0
    1.4712   27.6253    4.2828 H   0  0  0  0  0  0  0  0  0  0  0  0
    1.5605   29.2856    3.0943 H   0  0  0  0  0  0  0  0  0  0  0  0
    1.6268   31.0326    1.8481 H   0  0  0  0  0  0  0  0  0  0  0  0
   -2.3507   31.9572    1.8423 H   0  0  0  0  0  0  0  0  0  0  0  0
   -1.6480   33.0630    0.9631 H   0  0  0  0  0  0  0  0  0  0  0  0
    1.0693   31.8613    1.3356 H   0  0  0  0  0  0  0  0  0  0  0  0
   -0.8991   34.2348    0.0157 H   0  0  0  0  0  0  0  0  0  0  0  0
    1.7750   35.6448   -1.4374 H   0  0  0  0  0  0  0  0  0  0  0  0
    2.0989   33.5847   -1.0483 H   0  0  0  0  0  0  0  0  0  0  0  0
    0.1890   35.7459   -0.2433 H   0  0  0  0  0  0  0  0  0  0  0  0
    1.2344   31.7818    1.3494 H   0  0  0  0  0  0  0  0  0  0  0  0
    2.5782   33.8535   -0.3146 H   0  0  0  0  0  0  0  0  0  0  0  0
    3.7444   33.2757   -0.1120 H   0  0  0  0  0  0  0  0  0  0  0  0
    2.3902   31.1867    1.5620 H   0  0  0  0  0  0  0  0  0  0  0  0
    5.6372   32.1350    0.3557 H   0  0  0  0  0  0  0  0  0  0  0  0
   -3.5095   31.1044    2.6341 H   0  0  0  0  0  0  0  0  0  0  0  0
   -4.6474   29.1051    4.2332 H   0  0  0  0  0  0  0  0  0  0  0  0
    0.4495   27.2438    4.7191 H   0  0  0  0  0  0  0  0  0  0  0  0
   -2.9372   25.7152    6.3516 H   0  0  0  0  0  0  0  0  0  0  0  0
   -1.5803   24.7891    6.7855 H   0  0  0  0  0  0  0  0  0  0  0  0
   -2.3462   27.0972    5.2782 H   0  0  0  0  0  0  0  0  0  0  0  0
    1.9574   26.3489    5.1062 H   0  0  0  0  0  0  0  0  0  0  0  0
    0.3274   23.9373    7.0802 H   0  0  0  0  0  0  0  0  0  0  0  0
    3.0584   22.1646    7.8857 H   0  0  0  0  0  0  0  0  0  0  0  0
    1.0403   22.8061    7.7598 H   0  0  0  0  0  0  0  0  0  0  0  0
    3.7836   23.4940    6.8285 H   0  0  0  0  0  0  0  0  0  0  0  0
    2.6352   26.1314    5.1458 H   0  0  0  0  0  0  0  0  0  0  0  0
    4.4400   26.2006    4.7991 H   0  0  0  0  0  0  0  0  0  0  0  0
    5.8880   24.7719    5.5721 H   0  0  0  0  0  0  0  0  0  0  0  0
    3.1826   22.8468    7.3816 H   0  0  0  0  0  0  0  0  0  0  0  0
    6.4047   22.4108    7.1589 H   0  0  0  0  0  0  0  0  0  0  0  0
    5.8963   24.4372    6.7912 H   0  0  0  0  0  0  0  0  0  0  0  0
    4.5339   21.7749    6.9417 H   0  0  0  0  0  0  0  0  0  0  0  0
  1  2  3  0
  2  3  1  0
  3  4  1  0
  4  5  1  0
  5  6  1  0
  6  7  1  0
  7  8  1  0
  8  9  1  0
  9 10  1  0
 10 11  1  0
 11 12  1  0
 12 13  1  0
 13 14  1  0
 14 15  1  0
 13 16  1  0
 16 17  1  0
 17 18  1  0
  6 19  1  0
 19 20  1  0
 20 21  1  0
 21 22  1  0
 22 23  1  0
 23 24  1  0
 24 25  1  0
 25 26  1  0
 26 27  1  0
 27 28  1  0
 27 29  1  0
 29 30  1  0
 30 31  1  0
 25 32  1  0
 32 33  1  0
 33 34  1  0
 22 35  1  0
 35 36  1  0
 36 37  1  0
 36 38  1  0
 38 39  1  0
 39 40  1  0
 39 41  1  0
 41 42  1  0
 42 43  1  0
 43 44  1  0
 34  3  1  0
 43 41  1  0
 35  3  1  0
 34  4  1  0
 17 13  1  0
 36 20  1  0
 38 20  1  0
 32 23  1  0
 32 24  1  0
  1 45  1  0
  4 46  1  0
  5 47  1  0
  5 48  1  0
  6 49  1  0
  8 50  1  0
  8 51  1  0
  9 52  1  0
 10 53  1  0
 10 54  1  0
 11 55  1  0
 12 56  1  0
 12 57  1  0
 14 58  1  0
 15 59  1  0
 15 60  1  0
 15 61  1  0
 16 62  1  0
 16 63  1  0
 17 64  1  0
 18 65  1  0
 18 66  1  0
 18 67  1  0
 21 68  1  0
 21 69  1  0
 22 70  1  0
 23 71  1  0
 24 72  1  0
 25 73  1  0
 26 74  1  0
 26 75  1  0
 27 76  1  0
 28 77  1  0
 28 78  1  0
 28 79  1  0
 29 80  1  0
 29 81  1  0
 30 82  1  0
 30 83  1  0
 31 84  1  0
 33 85  1  0
 34 86  1  0
 35 87  1  0
 37 88  1  0
 37 89  1  0
 37 90  1  0
 38 91  1  0
 39 92  1  0
 40 93  1  0
 40 94  1  0
 40 95  1  0
 41 96  1  0
 42 97  1  0
 42 98  1  0
 43 99  1  0
 44100  1  0
 44101  1  0
 44102  1  0
M  END
