
     RDKit          2D

 34 38  0  0  0  0  0  0  0  0999 V2000
   -2.8910   21.8974    7.6266 C   0  0  0  0  0  0  0  0  0  0  0  0
   -1.7308   22.7617    7.2309 C   0  0  0  0  0  0  0  0  0  0  0  0
   -0.4240   22.1334    6.8468 C   0  0  0  0  0  0  0  0  0  0  0  0
    0.7363   22.9978    6.4510 C   0  0  0  0  0  0  0  0  0  0  0  0
    1.8965   23.8622    6.0552 C   0  0  0  0  0  0  0  0  0  0  0  0
    1.6575   23.9583    4.5775 C   0  0  0  0  0  0  0  0  0  0  0  0
    2.8338   24.6557    5.1940 C   0  0  0  0  0  0  0  0  0  0  0  0
    3.7712   25.4492    4.3326 C   0  0  0  0  0  0  0  0  0  0  0  0
    4.9475   26.1465    4.9491 C   0  0  0  0  0  0  0  0  0  0  0  0
    5.5488   26.7735    3.7262 N   0  0  0  0  0  0  0  0  0  0  0  0
    4.9069   26.5695    2.3860 C   0  0  0  0  0  0  0  0  0  0  0  0
    5.8442   27.3630    1.5248 C   0  0  0  0  0  0  0  0  0  0  0  0
    5.6052   27.4592    0.0470 C   0  0  0  0  0  0  0  0  0  0  0  0
    4.6679   26.6657    0.9083 C   0  0  0  0  0  0  0  0  0  0  0  0
    4.0102   25.3530    5.8104 C   0  0  0  0  0  0  0  0  0  0  0  0
   -4.0513   21.0330    8.0224 H   0  0  0  0  0  0  0  0  0  0  0  0
   -3.3418   21.8479    6.1969 H   0  0  0  0  0  0  0  0  0  0  0  0
   -2.4401   21.9469    9.0564 H   0  0  0  0  0  0  0  0  0  0  0  0
   -1.8773   24.2545    7.2192 H   0  0  0  0  0  0  0  0  0  0  0  0
   -0.2775   20.6406    6.8585 H   0  0  0  0  0  0  0  0  0  0  0  0
    1.0084   22.9521    7.7725 H   0  0  0  0  0  0  0  0  0  0  0  0
    0.2891   22.9428    5.0203 H   0  0  0  0  0  0  0  0  0  0  0  0
    2.5385   24.0662    7.3955 H   0  0  0  0  0  0  0  0  0  0  0  0
    1.8503   24.3430    3.1406 H   0  0  0  0  0  0  0  0  0  0  0  0
    0.5444   23.2428    4.3103 H   0  0  0  0  0  0  0  0  0  0  0  0
    3.5321   25.5453    2.8550 H   0  0  0  0  0  0  0  0  0  0  0  0
    5.9149   26.6261    5.9902 H   0  0  0  0  0  0  0  0  0  0  0  0
    6.7920   27.6044    3.8437 H   0  0  0  0  0  0  0  0  0  0  0  0
    3.7466   25.7052    2.7818 H   0  0  0  0  0  0  0  0  0  0  0  0
    7.0205   28.0603    2.1413 H   0  0  0  0  0  0  0  0  0  0  0  0
    6.7655   28.3235   -0.3487 H   0  0  0  0  0  0  0  0  0  0  0  0
    4.9633   27.2552   -1.2932 H   0  0  0  0  0  0  0  0  0  0  0  0
    3.4916   25.9684    0.2919 H   0  0  0  0  0  0  0  0  0  0  0  0
    4.2492   25.2569    7.2881 H   0  0  0  0  0  0  0  0  0  0  0  0
  1  2  1  0
  2  3  2  3
  3  4  1  0
  4  5  1  0
  5  6  1  0
  7  6  1  6
  7  8  1  0
  8  9  1  0
  9 10  1  0
 10 11  1  0
 11 12  1  0
 12 13  1  0
 13 14  1  0
  9 15  1  0
  7  5  1  0
 15  8  1  0
 15  7  1  0
 14 11  1  0
 14 12  1  0
  1 16  1  0
  1 17  1  0
  1 18  1  0
  2 19  1  0
  3 20  1  0
  4 21  1  0
  4 22  1  0
  5 23  1  1
  6 24  1  0
  6 25  1  0
  8 26  1  6
  9 27  1  1
 10 28  1  0
 11 29  1  6
 12 30  1  1
 13 31  1  0
 13 32  1  0
 14 33  1  1
 15 34  1  6
M  END
