
     RDKit          2D

 16 17  0  0  0  0  0  0  0  0999 V2000
   -4.9354   25.5424    4.7116 O   0  0  0  0  0  0  0  0  0  0  0  0
   -5.1396   26.2744    6.0050 C   0  0  0  0  0  0  0  0  0  0  0  0
   -5.0314   25.5393    7.3080 O   0  0  0  0  0  0  0  0  0  0  0  0
   -5.4520   27.7415    5.9952 C   0  0  0  0  0  0  0  0  0  0  0  0
   -5.7644   29.2086    5.9854 C   0  0  0  0  0  0  0  0  0  0  0  0
   -5.9878   29.1709    7.4682 C   0  0  0  0  0  0  0  0  0  0  0  0
   -6.0251   28.4047    8.7572 C   0  0  0  0  0  0  0  0  0  0  0  0
   -6.4080   29.5043    9.7028 O   0  0  0  0  0  0  0  0  0  0  0  0
   -5.6754   27.7038    7.4780 N   0  0  0  0  0  0  0  0  0  0  0  0
   -4.7190   24.0722    7.3177 H   0  0  0  0  0  0  0  0  0  0  0  0
   -5.2286   27.7792    4.5124 H   0  0  0  0  0  0  0  0  0  0  0  0
   -5.5410   29.2462    4.5026 H   0  0  0  0  0  0  0  0  0  0  0  0
   -6.0768   30.6756    5.9756 H   0  0  0  0  0  0  0  0  0  0  0  0
   -6.3474   30.5782    7.8425 H   0  0  0  0  0  0  0  0  0  0  0  0
   -5.9294   27.2566    9.7178 H   0  0  0  0  0  0  0  0  0  0  0  0
   -6.5737   29.2124   11.1648 H   0  0  0  0  0  0  0  0  0  0  0  0
  1  2  2  0
  2  3  1  0
  2  4  1  0
  4  5  1  0
  5  6  1  0
  6  7  1  0
  7  8  1  0
  7  9  1  0
  9  4  1  0
  9  6  1  0
  3 10  1  0
  4 11  1  0
  5 12  1  0
  5 13  1  0
  6 14  1  0
  7 15  1  0
  8 16  1  0
M  END
