
     RDKit          2D

 61 62  0  0  0  0  0  0  0  0999 V2000
  -10.1469   32.6504   15.2765 C   0  0  0  0  0  0  0  0  0  0  0  0
  -11.6011   32.5474   14.9233 Al  0  0  0  0  0  3  0  0  0  0  0  0
  -12.0112   32.0206   13.5801 C   0  0  0  0  0  0  0  0  0  0  0  0
  -13.4653   31.9176   13.2269 C   0  0  0  0  0  0  0  0  0  0  0  0
  -10.9671   31.5968   12.5900 C   0  0  0  0  0  0  0  0  0  0  0  0
   -9.9229   31.1729   11.6000 C   0  0  0  0  0  0  0  0  0  0  0  0
   -8.4688   31.2759   11.9531 C   0  0  0  0  0  0  0  0  0  0  0  0
   -7.4247   30.8521   10.9631 C   0  0  0  0  0  0  0  0  0  0  0  0
   -7.8347   30.3253    9.6198 C   0  0  0  0  0  0  0  0  0  0  0  0
   -6.7906   29.9015    8.6298 C   0  0  0  0  0  0  0  0  0  0  0  0
   -5.7465   29.4776    7.6397 C   0  0  0  0  0  0  0  0  0  0  0  0
   -4.7051   30.2264    8.4175 O   0  0  0  0  0  0  0  0  0  0  0  0
   -4.7024   29.0538    6.6497 C   0  0  0  0  0  0  0  0  0  0  0  0
   -3.6835   29.8892    7.3666 N   0  0  0  0  0  0  0  0  0  0  0  0
   -3.6583   28.6300    5.6596 C   0  0  0  0  0  0  0  0  0  0  0  0
   -4.0684   28.1032    4.3164 C   0  0  0  0  0  0  0  0  0  0  0  0
   -3.0242   27.6794    3.3263 C   0  0  0  0  0  0  0  0  0  0  0  0
   -1.9801   27.2555    2.3363 B   0  0  0  0  0  0  0  0  0  0  0  0
   -0.5259   27.3585    2.6895 O   0  0  0  0  0  0  0  0  0  0  0  0
   -2.6517   26.5277    4.2122 C   0  0  0  0  0  0  0  0  0  0  0  0
   -2.5599   25.4277    5.2279 C   0  0  0  0  0  0  0  0  0  0  0  0
   -1.2380   24.7414    5.0497 C   0  0  0  0  0  0  0  0  0  0  0  0
   -0.5129   25.4172    3.9239 C   0  0  0  0  0  0  0  0  0  0  0  0
   -1.3866   26.5212    3.4063 C   0  0  0  0  0  0  0  0  0  0  0  0
   -9.2889   30.2223    9.2667 C   0  0  0  0  0  0  0  0  0  0  0  0
  -10.3330   30.6461   10.2567 C   0  0  0  0  0  0  0  0  0  0  0  0
   -8.6927   32.7534   15.6297 H   0  0  0  0  0  0  0  0  0  0  0  0
  -10.5130   33.1969   16.6246 H   0  0  0  0  0  0  0  0  0  0  0  0
   -9.7808   32.1039   13.9285 H   0  0  0  0  0  0  0  0  0  0  0  0
  -12.6452   32.9712   15.9133 H   0  0  0  0  0  0  0  0  0  0  0  0
  -14.9195   31.8146   12.8737 H   0  0  0  0  0  0  0  0  0  0  0  0
  -13.8312   32.4705   14.5724 H   0  0  0  0  0  0  0  0  0  0  0  0
  -13.0994   31.3647   11.8814 H   0  0  0  0  0  0  0  0  0  0  0  0
   -9.0817   31.7986   13.2185 H   0  0  0  0  0  0  0  0  0  0  0  0
   -7.2275   31.5604   12.7457 H   0  0  0  0  0  0  0  0  0  0  0  0
   -5.9705   30.9551   11.3163 H   0  0  0  0  0  0  0  0  0  0  0  0
   -7.6871   29.0653    7.7654 H   0  0  0  0  0  0  0  0  0  0  0  0
   -5.8942   30.7376    9.4942 H   0  0  0  0  0  0  0  0  0  0  0  0
   -6.7879   28.7289    6.8620 H   0  0  0  0  0  0  0  0  0  0  0  0
   -4.9186   31.4323    9.2836 H   0  0  0  0  0  0  0  0  0  0  0  0
   -5.7213   28.2184    5.9327 H   0  0  0  0  0  0  0  0  0  0  0  0
   -2.2756   29.9588    6.8538 H   0  0  0  0  0  0  0  0  0  0  0  0
   -3.7220   30.7586    8.5883 H   0  0  0  0  0  0  0  0  0  0  0  0
   -2.9149   28.7199    5.9331 H   0  0  0  0  0  0  0  0  0  0  0  0
   -5.5226   28.0002    3.9632 H   0  0  0  0  0  0  0  0  0  0  0  0
   -3.3968   28.8310    2.4404 H   0  0  0  0  0  0  0  0  0  0  0  0
   -1.8459   26.6973    0.9505 H   0  0  0  0  0  0  0  0  0  0  0  0
    0.5182   26.9347    1.6994 H   0  0  0  0  0  0  0  0  0  0  0  0
   -3.5604   26.5029    4.8199 H   0  0  0  0  0  0  0  0  0  0  0  0
   -3.5500   25.6792    5.6180 H   0  0  0  0  0  0  0  0  0  0  0  0
   -2.7529   24.4275    6.3290 H   0  0  0  0  0  0  0  0  0  0  0  0
   -1.7074   23.8847    6.1880 H   0  0  0  0  0  0  0  0  0  0  0  0
   -0.0144   23.8759    5.1095 H   0  0  0  0  0  0  0  0  0  0  0  0
    0.5592   24.4105    4.2190 H   0  0  0  0  0  0  0  0  0  0  0  0
    0.4363   25.8825    2.8598 H   0  0  0  0  0  0  0  0  0  0  0  0
   -0.1706   26.6157    2.5332 H   0  0  0  0  0  0  0  0  0  0  0  0
   -1.7131   27.6677    2.4959 H   0  0  0  0  0  0  0  0  0  0  0  0
   -8.8473   29.6796    7.9398 H   0  0  0  0  0  0  0  0  0  0  0  0
  -10.5302   29.9378    8.4741 H   0  0  0  0  0  0  0  0  0  0  0  0
  -11.2116   30.2144    9.1203 H   0  0  0  0  0  0  0  0  0  0  0  0
  -11.6823   30.9200   10.8520 H   0  0  0  0  0  0  0  0  0  0  0  0
  1  2  1  0
  2  3  1  0
  3  4  1  0
  3  5  2  0
  5  6  2  0
  6  7  1  0
  7  8  1  0
  8  9  2  0
  9 10  1  0
 10 11  1  0
 11 12  1  0
 11 13  1  0
 13 14  1  0
 13 15  1  0
 15 16  2  3
 16 17  1  0
 17 18  1  0
 18 19  1  0
 17 20  1  0
 20 21  1  0
 21 22  1  0
 22 23  1  0
 23 24  1  0
  9 25  1  0
 25 26  1  0
 26  6  1  0
 24 20  1  0
  1 27  1  0
  1 28  1  0
  1 29  1  0
  2 30  1  0
  4 31  1  0
  4 32  1  0
  4 33  1  0
  7 34  1  0
  7 35  1  0
  8 36  1  0
 10 37  1  0
 10 38  1  0
 11 39  1  1
 12 40  1  0
 13 41  1  6
 14 42  1  0
 14 43  1  0
 15 44  1  0
 16 45  1  0
 17 46  1  1
 18 47  1  0
 19 48  1  0
 20 49  1  0
 21 50  1  0
 21 51  1  0
 22 52  1  0
 22 53  1  0
 23 54  1  0
 23 55  1  0
 24 56  1  0
 24 57  1  0
 25 58  1  0
 25 59  1  0
 26 60  1  0
 26 61  1  0
M  END
