
     RDKit          2D

109113  0  0  0  0  0  0  0  0999 V2000
   17.0233  -19.7480  -12.4077 C   0  0  0  0  0  0  0  0  0  0  0  0
   17.4239  -19.4369  -10.9960 C   0  0  0  0  0  0  0  0  0  0  0  0
   18.8758  -19.3840  -10.6227 N   0  0  0  0  0  0  0  0  0  0  0  0
   19.9271  -19.6421  -11.6611 C   0  0  0  0  0  0  0  0  0  0  0  0
   20.9783  -19.9002  -12.6995 C   0  0  0  0  0  0  0  0  0  0  0  0
   22.0296  -20.1583  -13.7379 C   0  0  0  0  0  0  0  0  0  0  0  0
   23.0808  -20.4164  -14.7763 C   0  0  0  0  0  0  0  0  0  0  0  0
   24.1320  -20.6745  -15.8148 C   0  0  0  0  0  0  0  0  0  0  0  0
   25.1833  -20.9326  -16.8532 C   0  0  0  0  0  0  0  0  0  0  0  0
   26.2345  -21.1907  -17.8916 C   0  0  0  0  0  0  0  0  0  0  0  0
   27.2857  -21.4488  -18.9300 C   0  0  0  0  0  0  0  0  0  0  0  0
   28.3370  -21.7069  -19.9684 C   0  0  0  0  0  0  0  0  0  0  0  0
   29.3882  -21.9650  -21.0068 O   0  0  0  0  0  0  0  0  0  0  0  0
   24.1305  -21.4422  -17.7923 C   0  0  0  0  0  0  0  0  0  0  0  0
   23.0777  -21.9518  -18.7314 C   0  0  0  0  0  0  0  0  0  0  0  0
   22.0249  -22.4614  -19.6705 C   0  0  0  0  0  0  0  0  0  0  0  0
   20.9721  -22.9710  -20.6097 C   0  0  0  0  0  0  0  0  0  0  0  0
   19.9193  -23.4806  -21.5488 C   0  0  0  0  0  0  0  0  0  0  0  0
   19.9573  -22.0815  -19.9547 C   0  0  0  0  0  0  0  0  0  0  0  0
   18.9425  -21.1920  -19.2997 C   0  0  0  0  0  0  0  0  0  0  0  0
   16.3727  -19.1788   -9.9576 C   0  0  0  0  0  0  0  0  0  0  0  0
   15.3518  -18.9848  -11.0393 C   0  0  0  0  0  0  0  0  0  0  0  0
   15.3215  -18.9207   -8.9191 C   0  0  0  0  0  0  0  0  0  0  0  0
   14.7143  -17.5973   -8.5588 O   0  0  0  0  0  0  0  0  0  0  0  0
   17.3936  -19.3728   -8.8758 C   0  0  0  0  0  0  0  0  0  0  0  0
   18.4145  -19.5668   -7.7941 C   0  0  0  0  0  0  0  0  0  0  0  0
   19.4354  -19.7608   -6.7124 C   0  0  0  0  0  0  0  0  0  0  0  0
   20.4563  -19.9548   -5.6307 C   0  0  0  0  0  0  0  0  0  0  0  0
   21.7894  -20.0215   -4.9461 C   0  0  0  0  0  0  0  0  0  0  0  0
   21.7096  -19.6558   -6.3987 C   0  0  0  0  0  0  0  0  0  0  0  0
   23.1664  -19.4602   -6.6983 C   0  0  0  0  0  0  0  0  0  0  0  0
   17.3329  -20.0051   -6.8519 C   0  0  0  0  0  0  0  0  0  0  0  0
   16.3119  -19.8111   -7.9336 C   0  0  0  0  0  0  0  0  0  0  0  0
   15.2303  -20.2495   -6.9913 C   0  0  0  0  0  0  0  0  0  0  0  0
   13.7435  -20.4471   -7.0094 C   0  0  0  0  0  0  0  0  0  0  0  0
   13.7841  -20.8838   -5.5750 C   0  0  0  0  0  0  0  0  0  0  0  0
   14.5627  -21.1632   -4.3237 C   0  0  0  0  0  0  0  0  0  0  0  0
   16.0453  -20.9430   -4.3808 C   0  0  0  0  0  0  0  0  0  0  0  0
   16.0080  -21.3895   -2.9491 O   0  0  0  0  0  0  0  0  0  0  0  0
   17.2771  -21.4617   -2.1528 C   0  0  0  0  0  0  0  0  0  0  0  0
   18.5462  -21.5338   -1.3563 C   0  0  0  0  0  0  0  0  0  0  0  0
   19.8152  -21.6059   -0.5599 C   0  0  0  0  0  0  0  0  0  0  0  0
   16.3909  -20.4700   -5.7615 C   0  0  0  0  0  0  0  0  0  0  0  0
   15.2709  -20.6862   -5.5569 C   0  0  0  0  0  0  0  0  0  0  0  0
   18.0746  -20.0061  -13.4461 H   0  0  0  0  0  0  0  0  0  0  0  0
   15.5715  -19.8009  -12.7809 H   0  0  0  0  0  0  0  0  0  0  0  0
   19.4496  -19.0897   -9.2684 H   0  0  0  0  0  0  0  0  0  0  0  0
   18.8576  -19.8520  -12.6916 H   0  0  0  0  0  0  0  0  0  0  0  0
   20.9965  -19.4321  -10.6306 H   0  0  0  0  0  0  0  0  0  0  0  0
   19.9159  -20.3246  -13.6696 H   0  0  0  0  0  0  0  0  0  0  0  0
   22.0408  -19.4757  -11.7294 H   0  0  0  0  0  0  0  0  0  0  0  0
   23.4337  -20.9046  -16.3085 H   0  0  0  0  0  0  0  0  0  0  0  0
   25.1945  -20.2500  -14.8447 H   0  0  0  0  0  0  0  0  0  0  0  0
   26.2361  -20.4230  -15.9140 H   0  0  0  0  0  0  0  0  0  0  0  0
   27.2569  -21.3779  -16.8101 H   0  0  0  0  0  0  0  0  0  0  0  0
   25.7109  -21.0995  -18.6002 H   0  0  0  0  0  0  0  0  0  0  0  0
   28.3202  -21.5757  -17.8512 H   0  0  0  0  0  0  0  0  0  0  0  0
   26.2513  -21.3219  -20.0088 H   0  0  0  0  0  0  0  0  0  0  0  0
   29.2910  -22.1401  -18.8950 H   0  0  0  0  0  0  0  0  0  0  0  0
   27.3830  -21.2737  -21.0419 H   0  0  0  0  0  0  0  0  0  0  0  0
   29.0678  -22.8089  -22.2047 H   0  0  0  0  0  0  0  0  0  0  0  0
   23.4991  -21.5742  -17.1853 H   0  0  0  0  0  0  0  0  0  0  0  0
   24.6103  -21.3835  -18.5345 H   0  0  0  0  0  0  0  0  0  0  0  0
   24.0683  -22.9114  -19.3212 H   0  0  0  0  0  0  0  0  0  0  0  0
   22.0871  -20.9921  -18.1416 H   0  0  0  0  0  0  0  0  0  0  0  0
   23.0812  -23.1563  -20.4776 H   0  0  0  0  0  0  0  0  0  0  0  0
   21.1048  -21.7095  -18.7550 H   0  0  0  0  0  0  0  0  0  0  0  0
   21.9869  -23.8605  -21.2646 H   0  0  0  0  0  0  0  0  0  0  0  0
   18.8665  -23.9902  -22.4879 H   0  0  0  0  0  0  0  0  0  0  0  0
   20.0873  -24.8615  -20.9878 H   0  0  0  0  0  0  0  0  0  0  0  0
   19.7451  -22.7078  -21.9451 H   0  0  0  0  0  0  0  0  0  0  0  0
   20.5258  -21.4732  -19.6525 H   0  0  0  0  0  0  0  0  0  0  0  0
   18.7469  -22.8947  -20.3068 H   0  0  0  0  0  0  0  0  0  0  0  0
   17.9277  -20.3025  -18.6447 H   0  0  0  0  0  0  0  0  0  0  0  0
   17.9924  -22.3486  -19.2010 H   0  0  0  0  0  0  0  0  0  0  0  0
   19.8925  -20.0354  -19.3984 H   0  0  0  0  0  0  0  0  0  0  0  0
   14.3309  -18.7908  -12.1210 H   0  0  0  0  0  0  0  0  0  0  0  0
   16.1659  -18.9057  -12.2967 H   0  0  0  0  0  0  0  0  0  0  0  0
   14.1420  -18.9941  -10.1526 H   0  0  0  0  0  0  0  0  0  0  0  0
   14.3553  -19.3047   -7.8380 H   0  0  0  0  0  0  0  0  0  0  0  0
   16.1851  -19.6897   -8.0457 H   0  0  0  0  0  0  0  0  0  0  0  0
   18.7005  -19.0868   -9.5545 H   0  0  0  0  0  0  0  0  0  0  0  0
   19.6126  -19.1553   -8.5975 H   0  0  0  0  0  0  0  0  0  0  0  0
   20.4011  -19.6091   -7.8501 H   0  0  0  0  0  0  0  0  0  0  0  0
   18.6168  -19.9329   -5.4673 H   0  0  0  0  0  0  0  0  0  0  0  0
   19.5576  -20.3211   -4.4870 H   0  0  0  0  0  0  0  0  0  0  0  0
   21.3536  -20.4110   -3.5647 H   0  0  0  0  0  0  0  0  0  0  0  0
   23.2407  -20.0002   -4.5675 H   0  0  0  0  0  0  0  0  0  0  0  0
   21.2962  -19.3296   -7.8032 H   0  0  0  0  0  0  0  0  0  0  0  0
   24.6230  -19.2647   -6.9981 H   0  0  0  0  0  0  0  0  0  0  0  0
   22.8289  -19.1279   -8.1216 H   0  0  0  0  0  0  0  0  0  0  0  0
   23.6789  -19.7663   -5.3222 H   0  0  0  0  0  0  0  0  0  0  0  0
   18.3538  -20.1991   -5.7701 H   0  0  0  0  0  0  0  0  0  0  0  0
   15.0597  -19.7289   -8.7551 H   0  0  0  0  0  0  0  0  0  0  0  0
   17.1145  -19.3388   -9.1096 H   0  0  0  0  0  0  0  0  0  0  0  0
   12.2566  -20.6447   -7.0275 H   0  0  0  0  0  0  0  0  0  0  0  0
   13.7029  -20.0103   -8.4439 H   0  0  0  0  0  0  0  0  0  0  0  0
   12.3584  -21.1877   -5.2212 H   0  0  0  0  0  0  0  0  0  0  0  0
   14.6033  -21.6000   -2.8893 H   0  0  0  0  0  0  0  0  0  0  0  0
   17.5202  -20.8162   -4.1385 H   0  0  0  0  0  0  0  0  0  0  0  0
   16.5110  -21.9994   -0.9805 H   0  0  0  0  0  0  0  0  0  0  0  0
   18.0432  -20.9240   -3.3249 H   0  0  0  0  0  0  0  0  0  0  0  0
   17.7710  -22.0117   -0.1644 H   0  0  0  0  0  0  0  0  0  0  0  0
   19.3214  -21.0559   -2.5483 H   0  0  0  0  0  0  0  0  0  0  0  0
   21.0843  -21.6781    0.2365 H   0  0  0  0  0  0  0  0  0  0  0  0
   19.0400  -22.0838    0.6320 H   0  0  0  0  0  0  0  0  0  0  0  0
   20.5904  -21.1280   -1.7519 H   0  0  0  0  0  0  0  0  0  0  0  0
   17.5875  -20.5832   -4.8641 H   0  0  0  0  0  0  0  0  0  0  0  0
   16.5910  -20.7251   -4.8456 H   0  0  0  0  0  0  0  0  0  0  0  0
  1  2  2  3
  2  3  1  0
  3  4  1  0
  4  5  1  0
  5  6  1  0
  6  7  3  0
  7  8  1  0
  8  9  1  0
  9 10  1  0
 10 11  1  0
 11 12  1  0
 12 13  1  0
  9 14  1  0
 14 15  1  0
 15 16  1  0
 16 17  1  0
 17 18  1  0
 17 19  1  0
 19 20  1  0
  2 21  1  0
 21 22  1  0
 21 23  1  0
 23 24  2  0
 21 25  1  0
 25 26  1  0
 26 27  1  0
 27 28  1  0
 28 29  1  0
 29 30  1  0
 30 31  1  0
 26 32  1  0
 32 33  1  0
 33 34  1  0
 34 35  1  0
 35 36  1  0
 36 37  1  0
 37 38  1  0
 38 39  1  0
 39 40  1  0
 40 41  1  0
 41 42  1  0
 38 43  1  0
 37 44  1  0
 30 28  1  0
 43 32  1  0
 43 34  1  0
 44 34  1  0
 44 36  1  0
  1 45  1  0
  1 46  1  0
  3 47  1  0
  4 48  1  0
  4 49  1  0
  5 50  1  0
  5 51  1  0
  8 52  1  0
  8 53  1  0
  9 54  1  0
 10 55  1  0
 10 56  1  0
 11 57  1  0
 11 58  1  0
 12 59  1  0
 12 60  1  0
 13 61  1  0
 14 62  1  0
 14 63  1  0
 15 64  1  0
 15 65  1  0
 16 66  1  0
 16 67  1  0
 17 68  1  0
 18 69  1  0
 18 70  1  0
 18 71  1  0
 19 72  1  0
 19 73  1  0
 20 74  1  0
 20 75  1  0
 20 76  1  0
 22 77  1  0
 22 78  1  0
 22 79  1  0
 23 80  1  0
 25 81  1  0
 25 82  1  0
 26 83  1  0
 27 84  1  0
 27 85  1  0
 28 86  1  0
 29 87  1  0
 29 88  1  0
 30 89  1  0
 31 90  1  0
 31 91  1  0
 31 92  1  0
 32 93  1  0
 33 94  1  0
 33 95  1  0
 35 96  1  0
 35 97  1  0
 36 98  1  0
 37 99  1  0
 38100  1  0
 40101  1  0
 40102  1  0
 41103  1  0
 41104  1  0
 42105  1  0
 42106  1  0
 42107  1  0
 43108  1  0
 44109  1  0
M  END
