
     RDKit          2D

 47 50  0  0  0  0  0  0  0  0999 V2000
   16.0693  -26.1931  -12.9892 C   0  0  0  0  0  0  0  0  0  0  0  0
   16.1382  -25.4592  -11.6828 C   0  0  0  0  0  0  0  0  0  0  0  0
   16.2072  -24.7253  -10.3764 C   0  0  0  0  0  0  0  0  0  0  0  0
   16.2761  -23.9915   -9.0700 C   0  0  0  0  0  0  0  0  0  0  0  0
   16.3451  -23.2575   -7.7637 C   0  0  0  0  0  0  0  0  0  0  0  0
   16.4141  -22.5237   -6.4573 C   0  0  0  0  0  0  0  0  0  0  0  0
   15.6062  -23.4486   -5.5960 C   0  0  0  0  0  0  0  0  0  0  0  0
   15.3863  -23.1244   -4.1480 C   0  0  0  0  0  0  0  0  0  0  0  0
   15.9742  -21.8753   -3.5614 C   0  0  0  0  0  0  0  0  0  0  0  0
   16.1942  -22.1995   -5.0093 C   0  0  0  0  0  0  0  0  0  0  0  0
   17.1047  -22.9204   -9.7154 C   0  0  0  0  0  0  0  0  0  0  0  0
   17.9333  -21.8494  -10.3608 C   0  0  0  0  0  0  0  0  0  0  0  0
   18.7618  -20.7785  -11.0062 C   0  0  0  0  0  0  0  0  0  0  0  0
   19.5903  -19.7075  -11.6516 N   0  0  0  0  0  0  0  0  0  0  0  0
   18.8298  -20.0440   -9.7001 N   0  0  0  0  0  0  0  0  0  0  0  0
   17.0382  -23.6559  -11.0211 C   0  0  0  0  0  0  0  0  0  0  0  0
   17.2591  -23.9806  -12.4688 C   0  0  0  0  0  0  0  0  0  0  0  0
   17.8426  -22.7289  -11.8834 C   0  0  0  0  0  0  0  0  0  0  0  0
   18.5270  -22.1690  -13.0951 O   0  0  0  0  0  0  0  0  0  0  0  0
   16.0003  -26.9270  -14.2955 H   0  0  0  0  0  0  0  0  0  0  0  0
   16.9025  -25.1249  -13.6332 H   0  0  0  0  0  0  0  0  0  0  0  0
   15.2360  -27.2613  -12.3451 H   0  0  0  0  0  0  0  0  0  0  0  0
   15.6891  -26.6967  -10.9639 H   0  0  0  0  0  0  0  0  0  0  0  0
   16.5154  -24.5384  -12.5951 H   0  0  0  0  0  0  0  0  0  0  0  0
   16.2919  -24.1524  -10.9242 H   0  0  0  0  0  0  0  0  0  0  0  0
   16.0257  -26.0194   -9.6399 H   0  0  0  0  0  0  0  0  0  0  0  0
   15.4476  -25.0624   -8.4246 H   0  0  0  0  0  0  0  0  0  0  0  0
   15.5115  -24.3254   -7.1197 H   0  0  0  0  0  0  0  0  0  0  0  0
   17.1809  -22.1082   -8.2436 H   0  0  0  0  0  0  0  0  0  0  0  0
   17.2459  -21.3438   -6.8648 H   0  0  0  0  0  0  0  0  0  0  0  0
   15.0182  -24.6976   -6.1826 H   0  0  0  0  0  0  0  0  0  0  0  0
   14.5784  -24.0493   -3.2867 H   0  0  0  0  0  0  0  0  0  0  0  0
   15.4919  -22.0000   -2.1465 H   0  0  0  0  0  0  0  0  0  0  0  0
   16.7297  -20.5829   -3.4661 H   0  0  0  0  0  0  0  0  0  0  0  0
   17.2717  -22.0600   -8.4982 H   0  0  0  0  0  0  0  0  0  0  0  0
   17.9005  -21.2515   -8.9856 H   0  0  0  0  0  0  0  0  0  0  0  0
   18.0670  -22.3026  -11.7844 H   0  0  0  0  0  0  0  0  0  0  0  0
   18.6938  -21.5130  -12.3124 H   0  0  0  0  0  0  0  0  0  0  0  0
   20.0636  -18.5360  -10.8431 H   0  0  0  0  0  0  0  0  0  0  0  0
   19.9456  -19.8081  -13.1055 H   0  0  0  0  0  0  0  0  0  0  0  0
   19.5631  -18.7385   -9.6111 H   0  0  0  0  0  0  0  0  0  0  0  0
   18.2257  -20.4671   -8.3939 H   0  0  0  0  0  0  0  0  0  0  0  0
   16.2543  -24.9334  -10.9627 H   0  0  0  0  0  0  0  0  0  0  0  0
   16.5084  -25.2757  -12.5627 H   0  0  0  0  0  0  0  0  0  0  0  0
   17.7408  -23.8555  -13.8838 H   0  0  0  0  0  0  0  0  0  0  0  0
   18.3611  -21.5203  -11.1619 H   0  0  0  0  0  0  0  0  0  0  0  0
   19.2777  -20.8739  -13.0013 H   0  0  0  0  0  0  0  0  0  0  0  0
  1  2  1  0
  2  3  1  0
  3  4  1  0
  4  5  1  0
  5  6  1  0
  6  7  1  0
  7  8  1  0
  8  9  1  0
  9 10  1  0
  4 11  1  0
 11 12  1  0
 12 13  1  0
 13 14  1  0
 13 15  1  0
 11 16  1  0
 16 17  1  0
 17 18  1  0
 18 19  1  0
 10  6  1  0
 18 16  1  0
 10  7  1  0
 10  8  1  0
  1 20  1  0
  1 21  1  0
  1 22  1  0
  2 23  1  0
  2 24  1  0
  3 25  1  0
  3 26  1  0
  4 27  1  0
  5 28  1  0
  5 29  1  0
  6 30  1  0
  7 31  1  0
  8 32  1  0
  9 33  1  0
  9 34  1  0
 11 35  1  0
 12 36  1  0
 12 37  1  0
 13 38  1  0
 14 39  1  0
 14 40  1  0
 15 41  1  0
 15 42  1  0
 16 43  1  0
 17 44  1  0
 17 45  1  0
 18 46  1  0
 19 47  1  0
M  END
