
     RDKit          2D

 30 32  0  0  0  0  0  0  0  0999 V2000
   21.0659  -20.3180  -11.2092 N   0  0  0  0  0  0  0  0  0  0  0  0
   19.9035  -20.8097  -10.3986 N   0  0  0  0  0  0  0  0  0  0  0  0
   20.1106  -21.2465   -8.9787 C   0  0  0  0  0  0  0  0  0  0  0  0
   20.3177  -21.6834   -7.5587 N   0  0  0  0  0  0  0  0  0  0  0  0
   19.1553  -22.1750   -6.7482 C   0  0  0  0  0  0  0  0  0  0  0  0
   17.8308  -22.1897   -7.4521 C   0  0  0  0  0  0  0  0  0  0  0  0
   16.4949  -22.6199   -6.9226 C   0  0  0  0  0  0  0  0  0  0  0  0
   15.0803  -22.9971   -6.5961 C   0  0  0  0  0  0  0  0  0  0  0  0
   16.1536  -23.1419   -5.5584 C   0  0  0  0  0  0  0  0  0  0  0  0
   17.0639  -23.3624   -4.3868 C   0  0  0  0  0  0  0  0  0  0  0  0
   17.7907  -23.6538   -3.1074 C   0  0  0  0  0  0  0  0  0  0  0  0
   18.5403  -23.1155   -4.2899 C   0  0  0  0  0  0  0  0  0  0  0  0
   19.4710  -22.5871   -5.3409 C   0  0  0  0  0  0  0  0  0  0  0  0
   20.8588  -19.8811  -12.6292 H   0  0  0  0  0  0  0  0  0  0  0  0
   22.4354  -20.2631  -10.5998 H   0  0  0  0  0  0  0  0  0  0  0  0
   18.5339  -20.8645  -11.0081 H   0  0  0  0  0  0  0  0  0  0  0  0
   21.5785  -20.9660   -9.1065 H   0  0  0  0  0  0  0  0  0  0  0  0
   18.6283  -21.4717   -9.0249 H   0  0  0  0  0  0  0  0  0  0  0  0
   21.6871  -21.6285   -6.9493 H   0  0  0  0  0  0  0  0  0  0  0  0
   17.6637  -21.7443   -8.8747 H   0  0  0  0  0  0  0  0  0  0  0  0
   15.9677  -22.2642   -8.2812 H   0  0  0  0  0  0  0  0  0  0  0  0
   14.4184  -22.6834   -7.9052 H   0  0  0  0  0  0  0  0  0  0  0  0
   13.8955  -23.4831   -5.8150 H   0  0  0  0  0  0  0  0  0  0  0  0
   15.0624  -23.6487   -4.6625 H   0  0  0  0  0  0  0  0  0  0  0  0
   15.8367  -23.8363   -3.6660 H   0  0  0  0  0  0  0  0  0  0  0  0
   16.6513  -24.1508   -2.2679 H   0  0  0  0  0  0  0  0  0  0  0  0
   18.9133  -23.7726   -2.1196 H   0  0  0  0  0  0  0  0  0  0  0  0
   19.7527  -23.1814   -3.4092 H   0  0  0  0  0  0  0  0  0  0  0  0
   20.8068  -22.1568   -5.8704 H   0  0  0  0  0  0  0  0  0  0  0  0
   20.3812  -22.8076   -4.1693 H   0  0  0  0  0  0  0  0  0  0  0  0
  1  2  1  0
  2  3  1  0
  3  4  1  0
  4  5  1  0
  5  6  2  0
  6  7  1  0
  7  8  1  0
  8  9  1  0
  9 10  1  0
 10 11  1  0
 11 12  1  0
 12 13  1  0
 13  5  1  0
  9  7  1  0
 12 10  1  0
  1 14  1  0
  1 15  1  0
  2 16  1  0
  3 17  1  0
  3 18  1  0
  4 19  1  0
  6 20  1  0
  7 21  1  0
  8 22  1  0
  8 23  1  0
  9 24  1  0
 10 25  1  0
 11 26  1  0
 11 27  1  0
 12 28  1  0
 13 29  1  0
 13 30  1  0
M  END
