
     RDKit          2D

 68 72  0  0  0  0  0  0  0  0999 V2000
    5.0261   27.7852   -0.7269 C   0  0  0  0  0  0  0  0  0  0  0  0
    3.8191   27.8583    0.1606 C   0  0  0  0  0  0  0  0  0  0  0  0
    2.6120   27.9314    1.0480 N   0  0  0  0  0  0  0  0  0  0  0  0
    2.5297   27.0719    2.2746 C   0  0  0  0  0  0  0  0  0  0  0  0
    1.2354   27.8293    2.3104 C   0  0  0  0  0  0  0  0  0  0  0  0
    0.1315   27.7474    3.3226 C   0  0  0  0  0  0  0  0  0  0  0  0
   -0.5589   28.7848    2.4875 O   0  0  0  0  0  0  0  0  0  0  0  0
   -1.9076   29.2997    2.8949 F   0  0  0  0  0  0  0  0  0  0  0  0
   -1.0756   27.8206    4.2101 O   0  0  0  0  0  0  0  0  0  0  0  0
    0.0492   26.8879    4.5492 C   0  0  0  0  0  0  0  0  0  0  0  0
   -0.7773   26.5048    5.7410 N   0  0  0  0  0  0  0  0  0  0  0  0
   -0.9600   25.6911    6.9877 C   0  0  0  0  0  0  0  0  0  0  0  0
   -1.7863   25.3080    8.1794 C   0  0  0  0  0  0  0  0  0  0  0  0
   -2.8523   26.2721    7.7501 C   0  0  0  0  0  0  0  0  0  0  0  0
   -3.9184   27.2361    7.3208 C   0  0  0  0  0  0  0  0  0  0  0  0
   -4.9843   28.2001    6.8915 C   0  0  0  0  0  0  0  0  0  0  0  0
   -2.0259   26.6551    6.5584 C   0  0  0  0  0  0  0  0  0  0  0  0
    1.0505   25.8979    5.0663 C   0  0  0  0  0  0  0  0  0  0  0  0
    2.3813   25.5230    4.4848 C   0  0  0  0  0  0  0  0  0  0  0  0
    3.6755   24.7656    4.4490 C   0  0  0  0  0  0  0  0  0  0  0  0
    4.9697   24.0082    4.4133 C   0  0  0  0  0  0  0  0  0  0  0  0
    6.2639   23.2507    4.3776 C   0  0  0  0  0  0  0  0  0  0  0  0
    7.5582   22.4933    4.3418 O   0  0  0  0  0  0  0  0  0  0  0  0
    2.2990   24.6634    5.7113 C   0  0  0  0  0  0  0  0  0  0  0  0
    3.2441   23.6807    5.0861 C   0  0  0  0  0  0  0  0  0  0  0  0
    3.1618   22.8212    6.3126 C   0  0  0  0  0  0  0  0  0  0  0  0
    2.2167   23.8039    6.9379 C   0  0  0  0  0  0  0  0  0  0  0  0
    1.2716   24.7866    7.5631 C   0  0  0  0  0  0  0  0  0  0  0  0
    0.3264   25.7694    8.1884 N   0  0  0  0  0  0  0  0  0  0  0  0
    3.0396   26.0455    3.2423 O   0  0  0  0  0  0  0  0  0  0  0  0
    6.2333   27.7120   -1.6144 H   0  0  0  0  0  0  0  0  0  0  0  0
    4.4990   28.9313   -1.5383 H   0  0  0  0  0  0  0  0  0  0  0  0
    5.5532   26.6390    0.0846 H   0  0  0  0  0  0  0  0  0  0  0  0
    4.5978   26.8819    0.9914 H   0  0  0  0  0  0  0  0  0  0  0  0
    3.1826   28.8330   -0.7854 H   0  0  0  0  0  0  0  0  0  0  0  0
    1.9391   28.5751    0.7296 H   0  0  0  0  0  0  0  0  0  0  0  0
    3.8773   26.5819    1.8345 H   0  0  0  0  0  0  0  0  0  0  0  0
    0.2342   28.8193    1.7931 H   0  0  0  0  0  0  0  0  0  0  0  0
    1.3618   28.3601    1.4912 H   0  0  0  0  0  0  0  0  0  0  0  0
   -0.5068   25.1461    7.3525 H   0  0  0  0  0  0  0  0  0  0  0  0
   -2.6127   24.9250    9.3712 H   0  0  0  0  0  0  0  0  0  0  0  0
   -0.8290   24.3045    8.7509 H   0  0  0  0  0  0  0  0  0  0  0  0
   -3.6788   25.8890    8.9419 H   0  0  0  0  0  0  0  0  0  0  0  0
   -4.7443   26.8538    8.5131 H   0  0  0  0  0  0  0  0  0  0  0  0
   -3.2285   27.7331    6.0850 H   0  0  0  0  0  0  0  0  0  0  0  0
   -6.0503   29.1641    6.4621 H   0  0  0  0  0  0  0  0  0  0  0  0
   -5.8108   27.8169    8.0830 H   0  0  0  0  0  0  0  0  0  0  0  0
   -4.1577   28.5834    5.6998 H   0  0  0  0  0  0  0  0  0  0  0  0
   -2.7047   27.6925    5.7138 H   0  0  0  0  0  0  0  0  0  0  0  0
    1.2431   24.9384    6.2031 H   0  0  0  0  0  0  0  0  0  0  0  0
   -0.0535   25.8160    6.0787 H   0  0  0  0  0  0  0  0  0  0  0  0
    3.6204   23.8952    5.6694 H   0  0  0  0  0  0  0  0  0  0  0  0
    4.0550   25.4738    3.1823 H   0  0  0  0  0  0  0  0  0  0  0  0
    5.3993   24.7988    3.2131 H   0  0  0  0  0  0  0  0  0  0  0  0
    4.7011   23.1311    5.6001 H   0  0  0  0  0  0  0  0  0  0  0  0
    6.7227   24.0891    3.2213 H   0  0  0  0  0  0  0  0  0  0  0  0
    5.8052   22.4124    5.5338 H   0  0  0  0  0  0  0  0  0  0  0  0
    8.0285   21.7541    5.5593 H   0  0  0  0  0  0  0  0  0  0  0  0
    1.3539   25.6462    6.3366 H   0  0  0  0  0  0  0  0  0  0  0  0
    4.1722   22.6005    4.6150 H   0  0  0  0  0  0  0  0  0  0  0  0
    3.5527   24.2770    3.7446 H   0  0  0  0  0  0  0  0  0  0  0  0
    3.0795   21.9616    7.5392 H   0  0  0  0  0  0  0  0  0  0  0  0
    4.1069   21.8384    5.6874 H   0  0  0  0  0  0  0  0  0  0  0  0
    2.1344   22.9444    8.1644 H   0  0  0  0  0  0  0  0  0  0  0  0
    1.1901   23.9277    8.7901 H   0  0  0  0  0  0  0  0  0  0  0  0
    1.1219   25.8580    6.5239 H   0  0  0  0  0  0  0  0  0  0  0  0
    0.4196   25.8013    9.6851 H   0  0  0  0  0  0  0  0  0  0  0  0
   -0.6915   26.7273    7.6440 H   0  0  0  0  0  0  0  0  0  0  0  0
  1  2  1  0
  2  3  1  0
  3  4  1  0
  4  5  1  0
  5  6  1  0
  6  7  1  0
  7  8  1  0
  6  9  1  0
  9 10  1  0
 10 11  1  0
 11 12  1  0
 12 13  1  0
 13 14  1  0
 14 15  1  0
 15 16  1  0
 14 17  1  0
 10 18  1  0
 18 19  1  0
 19 20  1  0
 20 21  1  0
 21 22  1  0
 22 23  1  0
 19 24  1  0
 24 25  1  0
 25 26  1  0
 26 27  1  0
 27 28  1  0
 28 29  1  0
 19 30  1  0
 30  4  1  0
 10  6  1  0
 17 11  1  0
 27 24  1  0
 17 12  1  0
  1 31  1  0
  1 32  1  0
  1 33  1  0
  2 34  1  0
  2 35  1  0
  3 36  1  0
  4 37  1  0
  5 38  1  0
  5 39  1  0
 12 40  1  0
 13 41  1  0
 13 42  1  0
 14 43  1  0
 15 44  1  0
 15 45  1  0
 16 46  1  0
 16 47  1  0
 16 48  1  0
 17 49  1  0
 18 50  1  0
 18 51  1  0
 20 52  1  0
 20 53  1  0
 21 54  1  0
 21 55  1  0
 22 56  1  0
 22 57  1  0
 23 58  1  0
 24 59  1  0
 25 60  1  0
 25 61  1  0
 26 62  1  0
 26 63  1  0
 27 64  1  0
 28 65  1  0
 28 66  1  0
 29 67  1  0
 29 68  1  0
M  END
