
     RDKit          2D

 78 79  0  0  0  0  0  0  0  0999 V2000
   18.9776  -12.8557   -4.9842 C   0  0  0  0  0  0  0  0  0  0  0  0
   18.5833  -14.1262   -5.6774 C   0  0  0  0  0  0  0  0  0  0  0  0
   18.1889  -15.3966   -6.3707 C   0  0  0  0  0  0  0  0  0  0  0  0
   17.7946  -16.6670   -7.0639 C   0  0  0  0  0  0  0  0  0  0  0  0
   17.4003  -17.9374   -7.7571 C   0  0  0  0  0  0  0  0  0  0  0  0
   17.0060  -19.2078   -8.4504 C   0  0  0  0  0  0  0  0  0  0  0  0
   16.6116  -20.4782   -9.1437 C   0  0  0  0  0  0  0  0  0  0  0  0
   16.9379  -18.4738   -9.7568 C   0  0  0  0  0  0  0  0  0  0  0  0
   16.8698  -17.7398  -11.0631 C   0  0  0  0  0  0  0  0  0  0  0  0
   16.4933  -18.4728  -12.3165 C   0  0  0  0  0  0  0  0  0  0  0  0
   16.4253  -17.7389  -13.6229 C   0  0  0  0  0  0  0  0  0  0  0  0
   16.3572  -17.0048  -14.9293 C   0  0  0  0  0  0  0  0  0  0  0  0
   16.2547  -15.7025  -14.1922 N   0  0  0  0  0  0  0  0  0  0  0  0
   16.7672  -14.4416  -14.8226 As  0  0  0  0  0  3  0  0  0  0  0  0
   16.4597  -18.3072  -15.6664 C   0  0  0  0  0  0  0  0  0  0  0  0
   16.3245  -19.3194  -16.7651 C   0  0  0  0  0  0  0  0  0  0  0  0
   15.8110  -17.9242  -16.9635 O   0  0  0  0  0  0  0  0  0  0  0  0
   17.0740  -19.9418   -7.1440 C   0  0  0  0  0  0  0  0  0  0  0  0
   17.1421  -20.6758   -5.8376 C   0  0  0  0  0  0  0  0  0  0  0  0
   17.5186  -19.9428   -4.5842 O   0  0  0  0  0  0  0  0  0  0  0  0
   16.8336  -22.1428   -5.7847 C   0  0  0  0  0  0  0  0  0  0  0  0
   16.5250  -23.6097   -5.7317 C   0  0  0  0  0  0  0  0  0  0  0  0
   16.2166  -25.0767   -5.6788 C   0  0  0  0  0  0  0  0  0  0  0  0
   15.9080  -26.5437   -5.6259 C   0  0  0  0  0  0  0  0  0  0  0  0
   14.4612  -26.2307   -5.3828 C   0  0  0  0  0  0  0  0  0  0  0  0
   14.1528  -27.6976   -5.3299 C   0  0  0  0  0  0  0  0  0  0  0  0
   12.7057  -27.3848   -5.0895 C   0  0  0  0  0  0  0  0  0  0  0  0
   13.8445  -29.1646   -5.2770 C   0  0  0  0  0  0  0  0  0  0  0  0
   13.5360  -30.6316   -5.2241 C   0  0  0  0  0  0  0  0  0  0  0  0
   14.7698  -24.7636   -5.4358 C   0  0  0  0  0  0  0  0  0  0  0  0
   18.7814  -13.5206   -3.6541 H   0  0  0  0  0  0  0  0  0  0  0  0
   19.1738  -12.1909   -6.3145 H   0  0  0  0  0  0  0  0  0  0  0  0
   19.3719  -11.5853   -4.2911 H   0  0  0  0  0  0  0  0  0  0  0  0
   18.3872  -14.7912   -4.3473 H   0  0  0  0  0  0  0  0  0  0  0  0
   18.7793  -13.4612   -7.0076 H   0  0  0  0  0  0  0  0  0  0  0  0
   18.2901  -14.7040   -7.6974 H   0  0  0  0  0  0  0  0  0  0  0  0
   18.0877  -16.0892   -5.0440 H   0  0  0  0  0  0  0  0  0  0  0  0
   17.6006  -17.3326   -5.7338 H   0  0  0  0  0  0  0  0  0  0  0  0
   17.9886  -16.0013   -8.3941 H   0  0  0  0  0  0  0  0  0  0  0  0
   17.5419  -17.4557   -8.4869 H   0  0  0  0  0  0  0  0  0  0  0  0
   17.2566  -18.4434   -6.3524 H   0  0  0  0  0  0  0  0  0  0  0  0
   16.6738  -20.1726   -9.9727 H   0  0  0  0  0  0  0  0  0  0  0  0
   16.4103  -21.3054   -7.9087 H   0  0  0  0  0  0  0  0  0  0  0  0
   16.2173  -21.7486   -9.8369 H   0  0  0  0  0  0  0  0  0  0  0  0
   17.3917  -17.7572   -9.5017 H   0  0  0  0  0  0  0  0  0  0  0  0
   16.4743  -19.0847  -10.1999 H   0  0  0  0  0  0  0  0  0  0  0  0
   17.1783  -16.2728  -11.1162 H   0  0  0  0  0  0  0  0  0  0  0  0
   16.1849  -19.9398  -12.2636 H   0  0  0  0  0  0  0  0  0  0  0  0
   16.1991  -18.5362  -13.9352 H   0  0  0  0  0  0  0  0  0  0  0  0
   16.1998  -18.6896  -13.7403 H   0  0  0  0  0  0  0  0  0  0  0  0
   16.2891  -16.2708  -16.2357 H   0  0  0  0  0  0  0  0  0  0  0  0
   15.6397  -15.6610  -12.8248 H   0  0  0  0  0  0  0  0  0  0  0  0
   16.6647  -13.1392  -14.0855 H   0  0  0  0  0  0  0  0  0  0  0  0
   17.3822  -14.4830  -16.1902 H   0  0  0  0  0  0  0  0  0  0  0  0
   17.1440  -19.1426  -14.6254 H   0  0  0  0  0  0  0  0  0  0  0  0
   16.9619  -20.5064  -16.1056 H   0  0  0  0  0  0  0  0  0  0  0  0
   15.9680  -19.9194  -18.0929 H   0  0  0  0  0  0  0  0  0  0  0  0
   17.4751  -18.7706   -6.2969 H   0  0  0  0  0  0  0  0  0  0  0  0
   16.6896  -21.2919   -7.6726 H   0  0  0  0  0  0  0  0  0  0  0  0
   18.2789  -22.4558   -6.0355 H   0  0  0  0  0  0  0  0  0  0  0  0
   15.3882  -21.8297   -5.5339 H   0  0  0  0  0  0  0  0  0  0  0  0
   17.9709  -23.9228   -5.9801 H   0  0  0  0  0  0  0  0  0  0  0  0
   15.1277  -23.1202   -5.4917 H   0  0  0  0  0  0  0  0  0  0  0  0
   17.6632  -25.3898   -5.9218 H   0  0  0  0  0  0  0  0  0  0  0  0
   15.9587  -28.0429   -5.6333 H   0  0  0  0  0  0  0  0  0  0  0  0
   17.3547  -26.8567   -5.8689 H   0  0  0  0  0  0  0  0  0  0  0  0
   13.0146  -25.9176   -5.1398 H   0  0  0  0  0  0  0  0  0  0  0  0
   15.6000  -28.0106   -5.5703 H   0  0  0  0  0  0  0  0  0  0  0  0
   12.4539  -28.4558   -4.0699 H   0  0  0  0  0  0  0  0  0  0  0  0
   12.4292  -26.2247   -5.9994 H   0  0  0  0  0  0  0  0  0  0  0  0
   11.2585  -27.0718   -4.8491 H   0  0  0  0  0  0  0  0  0  0  0  0
   12.3712  -29.0329   -5.0273 H   0  0  0  0  0  0  0  0  0  0  0  0
   15.2908  -29.4775   -5.5220 H   0  0  0  0  0  0  0  0  0  0  0  0
   14.9824  -30.9445   -5.4691 H   0  0  0  0  0  0  0  0  0  0  0  0
   12.0897  -30.3187   -4.9791 H   0  0  0  0  0  0  0  0  0  0  0  0
   13.2277  -32.0986   -5.1712 H   0  0  0  0  0  0  0  0  0  0  0  0
   14.8997  -23.2695   -5.4587 H   0  0  0  0  0  0  0  0  0  0  0  0
   13.3231  -24.4507   -5.1927 H   0  0  0  0  0  0  0  0  0  0  0  0
  1  2  1  0
  2  3  1  0
  3  4  1  0
  4  5  1  0
  6  5  1  6
  6  7  1  0
  6  8  1  0
  8  9  1  0
  9 10  2  3
 10 11  1  0
 11 12  1  0
 12 13  1  0
 13 14  1  0
 12 15  1  0
 15 16  1  0
 16 17  1  0
  6 18  1  0
 18 19  1  0
 19 20  2  0
 19 21  1  0
 21 22  1  0
 22 23  1  0
 23 24  1  0
 24 25  1  0
 25 26  1  0
 26 27  1  0
 26 28  1  0
 28 29  1  0
 25 30  1  0
 17 15  1  0
 30 23  1  0
  1 31  1  0
  1 32  1  0
  1 33  1  0
  2 34  1  0
  2 35  1  0
  3 36  1  0
  3 37  1  0
  4 38  1  0
  4 39  1  0
  5 40  1  0
  5 41  1  0
  7 42  1  0
  7 43  1  0
  7 44  1  0
  8 45  1  0
  8 46  1  0
  9 47  1  0
 10 48  1  0
 11 49  1  0
 11 50  1  0
 12 51  1  1
 13 52  1  0
 14 53  1  0
 14 54  1  0
 15 55  1  1
 16 56  1  0
 16 57  1  0
 18 58  1  0
 18 59  1  0
 21 60  1  0
 21 61  1  0
 22 62  1  0
 22 63  1  0
 23 64  1  6
 24 65  1  0
 24 66  1  0
 25 67  1  1
 26 68  1  1
 27 69  1  0
 27 70  1  0
 27 71  1  0
 28 72  1  0
 28 73  1  0
 29 74  1  0
 29 75  1  0
 29 76  1  0
 30 77  1  0
 30 78  1  0
M  END
