
     RDKit          2D

 38 39  0  0  0  0  0  0  0  0999 V2000
    1.8809   33.7265    9.1693 C   0  0  0  0  0  0  0  0  0  0  0  0
    2.4326   32.3626    9.4621 C   0  0  0  0  0  0  0  0  0  0  0  0
    2.9841   30.9988    9.7548 C   0  0  0  0  0  0  0  0  0  0  0  0
    4.2345   31.0404    8.9272 C   0  0  0  0  0  0  0  0  0  0  0  0
    5.1538   29.8555    8.8972 C   0  0  0  0  0  0  0  0  0  0  0  0
    6.4042   29.8971    8.0696 C   0  0  0  0  0  0  0  0  0  0  0  0
    7.6545   29.9386    7.2421 C   0  0  0  0  0  0  0  0  0  0  0  0
    8.9049   29.9802    6.4145 C   0  0  0  0  0  0  0  0  0  0  0  0
   10.1552   30.0219    5.5869 C   0  0  0  0  0  0  0  0  0  0  0  0
   11.4055   30.0634    4.7593 N   0  0  0  0  0  0  0  0  0  0  0  0
   11.3763   29.6020    3.3324 N   0  0  0  0  0  0  0  0  0  0  0  0
   12.6266   29.6436    2.5048 C   0  0  0  0  0  0  0  0  0  0  0  0
   12.9577   30.8700    1.7073 O   0  0  0  0  0  0  0  0  0  0  0  0
    3.1015   29.6205   10.3349 C   0  0  0  0  0  0  0  0  0  0  0  0
    2.0427   29.1052   11.2642 C   0  0  0  0  0  0  0  0  0  0  0  0
    1.9254   30.4835   10.6840 C   0  0  0  0  0  0  0  0  0  0  0  0
    1.3294   35.0903    8.8766 H   0  0  0  0  0  0  0  0  0  0  0  0
    3.0534   34.0092    8.2775 H   0  0  0  0  0  0  0  0  0  0  0  0
    0.7085   33.4437   10.0612 H   0  0  0  0  0  0  0  0  0  0  0  0
    3.6064   32.6464    8.5724 H   0  0  0  0  0  0  0  0  0  0  0  0
    1.2587   32.0788   10.3517 H   0  0  0  0  0  0  0  0  0  0  0  0
    4.5656   32.2668    8.1296 H   0  0  0  0  0  0  0  0  0  0  0  0
    4.9955   28.6875    9.5553 H   0  0  0  0  0  0  0  0  0  0  0  0
    6.7433   28.5044    8.5119 H   0  0  0  0  0  0  0  0  0  0  0  0
    6.0650   31.2897    7.6273 H   0  0  0  0  0  0  0  0  0  0  0  0
    7.3146   31.3307    6.7986 H   0  0  0  0  0  0  0  0  0  0  0  0
    7.9943   28.5466    7.6856 H   0  0  0  0  0  0  0  0  0  0  0  0
    9.2438   28.5876    6.8567 H   0  0  0  0  0  0  0  0  0  0  0  0
    8.5659   31.3729    5.9723 H   0  0  0  0  0  0  0  0  0  0  0  0
    9.8158   31.4142    5.1441 H   0  0  0  0  0  0  0  0  0  0  0  0
   10.4946   28.6294    6.0297 H   0  0  0  0  0  0  0  0  0  0  0  0
   12.6853   30.5664    5.3588 H   0  0  0  0  0  0  0  0  0  0  0  0
   10.0965   29.0990    2.7329 H   0  0  0  0  0  0  0  0  0  0  0  0
   13.5459   28.4586    2.4748 H   0  0  0  0  0  0  0  0  0  0  0  0
    4.0925   28.7296   10.1186 H   0  0  0  0  0  0  0  0  0  0  0  0
    2.5943   27.7414   11.5569 H   0  0  0  0  0  0  0  0  0  0  0  0
    0.7923   29.0636   12.0918 H   0  0  0  0  0  0  0  0  0  0  0  0
    0.7492   31.3466   11.0331 H   0  0  0  0  0  0  0  0  0  0  0  0
  1  2  1  0
  3  2  1  6
  3  4  1  0
  4  5  2  3
  5  6  1  0
  6  7  1  0
  7  8  1  0
  8  9  1  0
  9 10  1  0
 10 11  1  0
 11 12  1  0
 12 13  2  0
  3 14  1  0
 14 15  1  0
 15 16  1  0
 16  3  1  0
 16 14  1  0
  1 17  1  0
  1 18  1  0
  1 19  1  0
  2 20  1  0
  2 21  1  0
  4 22  1  0
  5 23  1  0
  6 24  1  0
  6 25  1  0
  7 26  1  0
  7 27  1  0
  8 28  1  0
  8 29  1  0
  9 30  1  0
  9 31  1  0
 10 32  1  0
 11 33  1  0
 12 34  1  0
 14 35  1  6
 15 36  1  0
 15 37  1  0
 16 38  1  6
M  END
