
     RDKit          2D

 31 31  0  0  0  0  0  0  0  0999 V2000
   -2.7763   27.9327    9.0743 C   0  0  0  0  0  0  0  0  0  0  0  0
   -1.4037   27.3466    8.9244 C   0  0  0  0  0  0  0  0  0  0  0  0
   -0.2715   27.8647    9.7610 C   0  0  0  0  0  0  0  0  0  0  0  0
    1.1011   27.2786    9.6110 C   0  0  0  0  0  0  0  0  0  0  0  0
    2.2332   27.7966   10.4476 C   0  0  0  0  0  0  0  0  0  0  0  0
    3.3469   26.9256    9.9468 C   0  0  0  0  0  0  0  0  0  0  0  0
    3.6156   27.9497   11.0093 C   0  0  0  0  0  0  0  0  0  0  0  0
    3.3752   29.0538   11.9957 C   0  0  0  0  0  0  0  0  0  0  0  0
   -1.1633   26.2425    7.9380 C   0  0  0  0  0  0  0  0  0  0  0  0
   -0.9228   25.1384    6.9515 C   0  0  0  0  0  0  0  0  0  0  0  0
   -0.6824   24.0342    5.9651 C   0  0  0  0  0  0  0  0  0  0  0  0
   -0.4421   22.9301    4.9786 N   0  0  0  0  0  0  0  0  0  0  0  0
   -3.9085   27.4146    8.2377 H   0  0  0  0  0  0  0  0  0  0  0  0
   -3.0167   29.0369   10.0608 H   0  0  0  0  0  0  0  0  0  0  0  0
   -0.5119   28.9688   10.7474 H   0  0  0  0  0  0  0  0  0  0  0  0
    1.3415   26.1745    8.6246 H   0  0  0  0  0  0  0  0  0  0  0  0
    1.4495   28.6981   11.0767 H   0  0  0  0  0  0  0  0  0  0  0  0
    4.7195   26.3395    9.7969 H   0  0  0  0  0  0  0  0  0  0  0  0
    2.6016   26.1050    8.9363 H   0  0  0  0  0  0  0  0  0  0  0  0
    5.0815   27.7193   11.2285 H   0  0  0  0  0  0  0  0  0  0  0  0
    3.1348   30.1580   12.9822 H   0  0  0  0  0  0  0  0  0  0  0  0
    2.0622   29.2259   11.7334 H   0  0  0  0  0  0  0  0  0  0  0  0
    4.8155   28.9968   12.4107 H   0  0  0  0  0  0  0  0  0  0  0  0
   -2.6097   26.2809    7.5425 H   0  0  0  0  0  0  0  0  0  0  0  0
    0.2832   26.2041    8.3334 H   0  0  0  0  0  0  0  0  0  0  0  0
   -2.3683   25.1800    6.5526 H   0  0  0  0  0  0  0  0  0  0  0  0
    0.5225   25.0967    7.3504 H   0  0  0  0  0  0  0  0  0  0  0  0
   -2.1287   24.0730    5.5693 H   0  0  0  0  0  0  0  0  0  0  0  0
    0.7639   23.9954    6.3608 H   0  0  0  0  0  0  0  0  0  0  0  0
    0.9305   22.3439    4.8286 H   0  0  0  0  0  0  0  0  0  0  0  0
   -1.5743   22.4121    4.1421 H   0  0  0  0  0  0  0  0  0  0  0  0
  1  2  2  3
  2  3  1  0
  3  4  2  3
  4  5  1  0
  5  6  1  0
  6  7  1  0
  7  8  1  0
  2  9  1  0
  9 10  1  0
 10 11  1  0
 11 12  1  0
  7  5  1  0
  1 13  1  0
  1 14  1  0
  3 15  1  0
  4 16  1  0
  5 17  1  1
  6 18  1  0
  6 19  1  0
  7 20  1  6
  8 21  1  0
  8 22  1  0
  8 23  1  0
  9 24  1  0
  9 25  1  0
 10 26  1  0
 10 27  1  0
 11 28  1  0
 11 29  1  0
 12 30  1  0
 12 31  1  0
M  END
