
     RDKit          2D

 34 35  0  0  0  0  0  0  0  0999 V2000
   12.9732  -22.1150   -8.0037 C   0  0  0  0  0  0  0  0  0  0  0  0
   14.4343  -22.0032   -8.3244 C   0  0  0  0  0  0  0  0  0  0  0  0
   15.4566  -22.2077   -7.2460 C   0  0  0  0  0  0  0  0  0  0  0  0
   16.4791  -22.4122   -6.1676 C   0  0  0  0  0  0  0  0  0  0  0  0
   17.5014  -22.6167   -5.0892 C   0  0  0  0  0  0  0  0  0  0  0  0
   17.5757  -22.1634   -7.1603 C   0  0  0  0  0  0  0  0  0  0  0  0
   18.6725  -21.9147   -8.1529 C   0  0  0  0  0  0  0  0  0  0  0  0
   19.7693  -21.6660   -9.1454 C   0  0  0  0  0  0  0  0  0  0  0  0
   17.6499  -21.7042   -9.2299 C   0  0  0  0  0  0  0  0  0  0  0  0
   16.6274  -21.4936  -10.3070 C   0  0  0  0  0  0  0  0  0  0  0  0
   17.5299  -21.2114  -11.4714 C   0  0  0  0  0  0  0  0  0  0  0  0
   16.9441  -20.9283  -12.8229 C   0  0  0  0  0  0  0  0  0  0  0  0
   16.0416  -21.2105  -11.6585 N   0  0  0  0  0  0  0  0  0  0  0  0
   11.9508  -21.9105   -9.0820 H   0  0  0  0  0  0  0  0  0  0  0  0
   12.5346  -22.4314   -6.6045 H   0  0  0  0  0  0  0  0  0  0  0  0
   14.6949  -21.6826   -9.7664 H   0  0  0  0  0  0  0  0  0  0  0  0
   14.9443  -22.3518   -6.6524 H   0  0  0  0  0  0  0  0  0  0  0  0
   14.8119  -22.3253   -6.7922 H   0  0  0  0  0  0  0  0  0  0  0  0
   15.3823  -22.6609   -5.1750 H   0  0  0  0  0  0  0  0  0  0  0  0
   18.5238  -22.8212   -4.0109 H   0  0  0  0  0  0  0  0  0  0  0  0
   16.4046  -22.8635   -4.0963 H   0  0  0  0  0  0  0  0  0  0  0  0
   18.7147  -22.3966   -5.9435 H   0  0  0  0  0  0  0  0  0  0  0  0
   16.4272  -21.9853   -8.1084 H   0  0  0  0  0  0  0  0  0  0  0  0
   18.7244  -22.3416   -6.2121 H   0  0  0  0  0  0  0  0  0  0  0  0
   19.6951  -22.1252   -7.0758 H   0  0  0  0  0  0  0  0  0  0  0  0
   20.8660  -21.4172  -10.1381 H   0  0  0  0  0  0  0  0  0  0  0  0
   20.7917  -21.8754   -8.0682 H   0  0  0  0  0  0  0  0  0  0  0  0
   18.8880  -21.4277  -10.3358 H   0  0  0  0  0  0  0  0  0  0  0  0
   18.6138  -21.4304  -10.3462 H   0  0  0  0  0  0  0  0  0  0  0  0
   16.4368  -21.9266   -8.3763 H   0  0  0  0  0  0  0  0  0  0  0  0
   15.2796  -21.6706   -9.6728 H   0  0  0  0  0  0  0  0  0  0  0  0
   19.0181  -21.2124  -11.2843 H   0  0  0  0  0  0  0  0  0  0  0  0
   18.2017  -20.7192  -13.6133 H   0  0  0  0  0  0  0  0  0  0  0  0
   15.9215  -20.7177  -13.9000 H   0  0  0  0  0  0  0  0  0  0  0  0
  1  2  2  3
  2  3  1  0
  3  4  1  0
  4  5  1  0
  4  6  1  0
  6  7  1  0
  7  8  1  0
  7  9  1  0
  9 10  1  0
 10 11  1  0
 11 12  1  0
 12 13  1  0
 13 10  1  0
 13 11  1  0
  1 14  1  0
  1 15  1  0
  2 16  1  0
  3 17  1  0
  3 18  1  0
  4 19  1  0
  5 20  1  0
  5 21  1  0
  5 22  1  0
  6 23  1  0
  6 24  1  0
  7 25  1  0
  8 26  1  0
  8 27  1  0
  8 28  1  0
  9 29  1  0
  9 30  1  0
 10 31  1  0
 11 32  1  0
 12 33  1  0
 12 34  1  0
M  END
