
     RDKit          2D

 20 20  0  0  0  0  0  0  0  0999 V2000
   -5.1893   25.8872    7.2303 C   0  0  0  0  0  0  0  0  0  0  0  0
   -3.9194   25.5335    7.9460 C   0  0  0  0  0  0  0  0  0  0  0  0
   -2.6411   25.3838    7.1755 C   0  0  0  0  0  0  0  0  0  0  0  0
   -3.3694   25.7066    5.9045 Cl  0  0  0  0  0  0  0  0  0  0  0  0
   -1.3629   25.2340    6.4050 C   0  0  0  0  0  0  0  0  0  0  0  0
   -0.0846   25.0843    5.6345 C   0  0  0  0  0  0  0  0  0  0  0  0
   -0.5800   25.3754    4.2490 O   0  0  0  0  0  0  0  0  0  0  0  0
    0.8548   24.7412    6.7526 C   0  0  0  0  0  0  0  0  0  0  0  0
    1.3657   24.8335    5.3453 C   0  0  0  0  0  0  0  0  0  0  0  0
   -6.4677   26.0369    8.0008 H   0  0  0  0  0  0  0  0  0  0  0  0
   -5.1811   26.0912    5.7443 H   0  0  0  0  0  0  0  0  0  0  0  0
   -3.9277   25.3295    9.4320 H   0  0  0  0  0  0  0  0  0  0  0  0
   -1.9130   25.0609    8.4465 H   0  0  0  0  0  0  0  0  0  0  0  0
   -2.0911   25.5568    5.1340 H   0  0  0  0  0  0  0  0  0  0  0  0
   -0.8525   24.9622    7.6249 H   0  0  0  0  0  0  0  0  0  0  0  0
    0.3721   25.3448    3.0902 H   0  0  0  0  0  0  0  0  0  0  0  0
    2.1247   24.3875    7.4681 H   0  0  0  0  0  0  0  0  0  0  0  0
    0.1273   24.7297    7.8898 H   0  0  0  0  0  0  0  0  0  0  0  0
    1.3740   25.0375    3.8593 H   0  0  0  0  0  0  0  0  0  0  0  0
    2.8131   24.5118    5.5722 H   0  0  0  0  0  0  0  0  0  0  0  0
  1  2  2  3
  2  3  1  0
  3  4  1  0
  3  5  1  0
  5  6  1  0
  6  7  1  0
  6  8  1  0
  8  9  1  0
  9  6  1  0
  1 10  1  0
  1 11  1  0
  2 12  1  0
  3 13  1  0
  5 14  1  0
  5 15  1  0
  7 16  1  0
  8 17  1  0
  8 18  1  0
  9 19  1  0
  9 20  1  0
M  END
