
     RDKit          2D

123124  0  0  0  0  0  0  0  0999 V2000
   16.7650  -26.5366   -6.4137 C   0  0  0  0  0  0  0  0  0  0  0  0
   15.8803  -25.7342   -7.3211 C   0  0  0  0  0  0  0  0  0  0  0  0
   14.3905  -25.8931   -7.2489 C   0  0  0  0  0  0  0  0  0  0  0  0
   16.4855  -24.7727   -8.3006 C   0  0  0  0  0  0  0  0  0  0  0  0
   16.5250  -23.5326   -7.4576 C   0  0  0  0  0  0  0  0  0  0  0  0
   16.5647  -22.2924   -6.6147 C   0  0  0  0  0  0  0  0  0  0  0  0
   16.6043  -21.0523   -5.7719 C   0  0  0  0  0  0  0  0  0  0  0  0
   16.6560  -25.6789   -9.4837 C   0  0  0  0  0  0  0  0  0  0  0  0
   17.0769  -24.2419   -9.5728 C   0  0  0  0  0  0  0  0  0  0  0  0
   17.5831  -24.2058  -10.9843 C   0  0  0  0  0  0  0  0  0  0  0  0
   18.0894  -24.1698  -12.3958 C   0  0  0  0  0  0  0  0  0  0  0  0
   18.4274  -22.7170  -12.2375 O   0  0  0  0  0  0  0  0  0  0  0  0
   18.5957  -24.1339  -13.8073 C   0  0  0  0  0  0  0  0  0  0  0  0
   19.1020  -24.0978  -15.2188 C   0  0  0  0  0  0  0  0  0  0  0  0
   17.3218  -22.8174   -9.1717 C   0  0  0  0  0  0  0  0  0  0  0  0
   17.5668  -21.3929   -8.7707 C   0  0  0  0  0  0  0  0  0  0  0  0
   16.9611  -22.1069   -7.5987 C   0  0  0  0  0  0  0  0  0  0  0  0
   16.5068  -21.9403   -6.1789 C   0  0  0  0  0  0  0  0  0  0  0  0
   16.3774  -20.9571   -5.0535 C   0  0  0  0  0  0  0  0  0  0  0  0
   16.6224  -19.5326   -4.6524 C   0  0  0  0  0  0  0  0  0  0  0  0
   16.4930  -18.5494   -3.5271 C   0  0  0  0  0  0  0  0  0  0  0  0
   16.3637  -17.5661   -2.4017 C   0  0  0  0  0  0  0  0  0  0  0  0
   16.2343  -16.5827   -1.2764 C   0  0  0  0  0  0  0  0  0  0  0  0
   16.1050  -15.5994   -0.1511 C   0  0  0  0  0  0  0  0  0  0  0  0
   16.9596  -16.4963   -3.2680 C   0  0  0  0  0  0  0  0  0  0  0  0
   17.5555  -15.4265   -4.1344 C   0  0  0  0  0  0  0  0  0  0  0  0
   18.1514  -14.3567   -5.0007 C   0  0  0  0  0  0  0  0  0  0  0  0
   18.7473  -13.2869   -5.8670 C   0  0  0  0  0  0  0  0  0  0  0  0
   19.3432  -12.2173   -6.7333 C   0  0  0  0  0  0  0  0  0  0  0  0
   17.6849  -16.4099   -5.2596 C   0  0  0  0  0  0  0  0  0  0  0  0
   17.8143  -17.3933   -6.3848 C   0  0  0  0  0  0  0  0  0  0  0  0
   17.9437  -18.3768   -7.5101 C   0  0  0  0  0  0  0  0  0  0  0  0
   17.1482  -18.2111   -5.1289 C   0  0  0  0  0  0  0  0  0  0  0  0
   17.7539  -17.4971   -6.3008 C   0  0  0  0  0  0  0  0  0  0  0  0
   18.2797  -16.1755   -6.7773 C   0  0  0  0  0  0  0  0  0  0  0  0
   18.2082  -17.6637   -7.7207 C   0  0  0  0  0  0  0  0  0  0  0  0
   18.3376  -18.6469   -8.8460 N   0  0  0  0  0  0  0  0  0  0  0  0
   18.0926  -20.0714   -9.2471 C   0  0  0  0  0  0  0  0  0  0  0  0
   18.2220  -21.0546  -10.3724 C   0  0  0  0  0  0  0  0  0  0  0  0
   18.3513  -22.0379  -11.4978 C   0  0  0  0  0  0  0  0  0  0  0  0
   17.6278  -22.1249   -9.5056 O   0  0  0  0  0  0  0  0  0  0  0  0
   18.8162  -19.9843  -11.2393 C   0  0  0  0  0  0  0  0  0  0  0  0
   19.4103  -18.9141  -12.1061 C   0  0  0  0  0  0  0  0  0  0  0  0
   20.0045  -17.8437  -12.9730 C   0  0  0  0  0  0  0  0  0  0  0  0
   16.1599  -27.4981   -5.4342 H   0  0  0  0  0  0  0  0  0  0  0  0
   18.2635  -26.5030   -6.3525 H   0  0  0  0  0  0  0  0  0  0  0  0
   12.9008  -26.0521   -7.1768 H   0  0  0  0  0  0  0  0  0  0  0  0
   14.4608  -27.0065   -8.2516 H   0  0  0  0  0  0  0  0  0  0  0  0
   14.3203  -24.7797   -6.2463 H   0  0  0  0  0  0  0  0  0  0  0  0
   15.9266  -24.1332   -6.2203 H   0  0  0  0  0  0  0  0  0  0  0  0
   17.1332  -22.6294   -8.4895 H   0  0  0  0  0  0  0  0  0  0  0  0
   15.9578  -23.1958   -5.5825 H   0  0  0  0  0  0  0  0  0  0  0  0
   17.1452  -21.1403   -7.3802 H   0  0  0  0  0  0  0  0  0  0  0  0
   16.4957  -20.0323   -4.6774 H   0  0  0  0  0  0  0  0  0  0  0  0
   17.2024  -20.4515   -7.0093 H   0  0  0  0  0  0  0  0  0  0  0  0
   15.9968  -21.8099   -4.6287 H   0  0  0  0  0  0  0  0  0  0  0  0
   16.9537  -26.3063  -10.8132 H   0  0  0  0  0  0  0  0  0  0  0  0
   16.1470  -27.0303   -9.0779 H   0  0  0  0  0  0  0  0  0  0  0  0
   17.4242  -22.7297  -11.1979 H   0  0  0  0  0  0  0  0  0  0  0  0
   17.8055  -25.6887  -10.9424 H   0  0  0  0  0  0  0  0  0  0  0  0
   17.8157  -25.6075  -12.7250 H   0  0  0  0  0  0  0  0  0  0  0  0
   19.0351  -21.8139  -13.2695 H   0  0  0  0  0  0  0  0  0  0  0  0
   18.9935  -22.6876  -13.8221 H   0  0  0  0  0  0  0  0  0  0  0  0
   18.2571  -25.5865  -13.9658 H   0  0  0  0  0  0  0  0  0  0  0  0
   19.6083  -24.0618  -16.6303 H   0  0  0  0  0  0  0  0  0  0  0  0
   18.9704  -25.5896  -15.3041 H   0  0  0  0  0  0  0  0  0  0  0  0
   19.2336  -22.6061  -15.1336 H   0  0  0  0  0  0  0  0  0  0  0  0
   17.6396  -22.4710  -10.5962 H   0  0  0  0  0  0  0  0  0  0  0  0
   17.0364  -22.9876   -7.7090 H   0  0  0  0  0  0  0  0  0  0  0  0
   17.9096  -21.9038  -10.1387 H   0  0  0  0  0  0  0  0  0  0  0  0
   16.3767  -23.2429   -6.8127 H   0  0  0  0  0  0  0  0  0  0  0  0
   17.0170  -23.2132   -8.6101 H   0  0  0  0  0  0  0  0  0  0  0  0
   15.9010  -22.6543   -5.0069 H   0  0  0  0  0  0  0  0  0  0  0  0
   16.2618  -23.3648   -6.5799 H   0  0  0  0  0  0  0  0  0  0  0  0
   15.8771  -20.9678   -3.6395 H   0  0  0  0  0  0  0  0  0  0  0  0
   15.7930  -22.0931   -4.2674 H   0  0  0  0  0  0  0  0  0  0  0  0
   16.0286  -20.0869   -3.3914 H   0  0  0  0  0  0  0  0  0  0  0  0
   15.9197  -19.7317   -2.8037 H   0  0  0  0  0  0  0  0  0  0  0  0
   17.0664  -17.3670   -4.2505 H   0  0  0  0  0  0  0  0  0  0  0  0
   15.7678  -18.6358   -1.5355 H   0  0  0  0  0  0  0  0  0  0  0  0
   15.7917  -17.6868   -0.3625 H   0  0  0  0  0  0  0  0  0  0  0  0
   16.6579  -15.3671   -2.0463 H   0  0  0  0  0  0  0  0  0  0  0  0
   15.9757  -14.6161    0.9742 H   0  0  0  0  0  0  0  0  0  0  0  0
   15.7196  -16.5863    0.9107 H   0  0  0  0  0  0  0  0  0  0  0  0
   16.4774  -14.4843   -1.0828 H   0  0  0  0  0  0  0  0  0  0  0  0
   17.1610  -17.3420   -4.4904 H   0  0  0  0  0  0  0  0  0  0  0  0
   16.9035  -15.3897   -2.2569 H   0  0  0  0  0  0  0  0  0  0  0  0
   17.4261  -14.4432   -3.0091 H   0  0  0  0  0  0  0  0  0  0  0  0
   17.8463  -13.4856   -3.8183 H   0  0  0  0  0  0  0  0  0  0  0  0
   17.9916  -13.2249   -4.0295 H   0  0  0  0  0  0  0  0  0  0  0  0
   18.6172  -12.3034   -4.7419 H   0  0  0  0  0  0  0  0  0  0  0  0
   18.8774  -14.2706   -6.9920 H   0  0  0  0  0  0  0  0  0  0  0  0
   19.9391  -11.1475   -7.5997 H   0  0  0  0  0  0  0  0  0  0  0  0
   19.4707  -13.2001   -7.8593 H   0  0  0  0  0  0  0  0  0  0  0  0
   19.2158  -11.2343   -5.6074 H   0  0  0  0  0  0  0  0  0  0  0  0
   17.0781  -17.3519   -4.2623 H   0  0  0  0  0  0  0  0  0  0  0  0
   17.1097  -17.5916   -4.5366 H   0  0  0  0  0  0  0  0  0  0  0  0
   17.2206  -18.4637   -5.5177 H   0  0  0  0  0  0  0  0  0  0  0  0
   18.4193  -16.4509   -7.3827 H   0  0  0  0  0  0  0  0  0  0  0  0
   18.0731  -19.3602   -8.6353 H   0  0  0  0  0  0  0  0  0  0  0  0
   18.5366  -17.3062   -8.3774 H   0  0  0  0  0  0  0  0  0  0  0  0
   17.3508  -19.4472   -6.6427 H   0  0  0  0  0  0  0  0  0  0  0  0
   17.3931  -16.7866   -4.7278 H   0  0  0  0  0  0  0  0  0  0  0  0
   16.8054  -17.7002   -3.7608 H   0  0  0  0  0  0  0  0  0  0  0  0
   17.6980  -16.3908   -5.2895 H   0  0  0  0  0  0  0  0  0  0  0  0
   18.8055  -14.8540   -7.2537 H   0  0  0  0  0  0  0  0  0  0  0  0
   17.7109  -15.5101   -5.5592 H   0  0  0  0  0  0  0  0  0  0  0  0
   18.9083  -16.6749   -8.0443 H   0  0  0  0  0  0  0  0  0  0  0  0
   18.8020  -17.1094   -8.9816 H   0  0  0  0  0  0  0  0  0  0  0  0
   18.5808  -16.2119   -7.6612 H   0  0  0  0  0  0  0  0  0  0  0  0
   18.9433  -17.9330  -10.0179 H   0  0  0  0  0  0  0  0  0  0  0  0
   18.7012  -19.2085  -10.3124 H   0  0  0  0  0  0  0  0  0  0  0  0
   18.5522  -22.8834  -12.7204 H   0  0  0  0  0  0  0  0  0  0  0  0
   18.9576  -21.0956  -12.4952 H   0  0  0  0  0  0  0  0  0  0  0  0
   17.7565  -23.1080  -10.6312 H   0  0  0  0  0  0  0  0  0  0  0  0
   17.1681  -21.9842   -8.0847 H   0  0  0  0  0  0  0  0  0  0  0  0
   19.0143  -20.8291  -12.4629 H   0  0  0  0  0  0  0  0  0  0  0  0
   18.7628  -18.8786  -10.2271 H   0  0  0  0  0  0  0  0  0  0  0  0
   19.5381  -19.8969  -13.2321 H   0  0  0  0  0  0  0  0  0  0  0  0
   19.2825  -17.9312  -10.9802 H   0  0  0  0  0  0  0  0  0  0  0  0
   20.5986  -16.7734  -13.8398 H   0  0  0  0  0  0  0  0  0  0  0  0
   19.8233  -16.8472  -11.8666 H   0  0  0  0  0  0  0  0  0  0  0  0
   20.1857  -18.8403  -14.0793 H   0  0  0  0  0  0  0  0  0  0  0  0
  1  2  2  3
  2  3  1  0
  2  4  1  0
  4  5  1  0
  5  6  1  0
  6  7  1  0
  4  8  1  0
  8  9  1  0
  9 10  1  0
 10 11  1  0
 11 12  1  0
 11 13  1  0
 13 14  1  0
  9 15  1  0
 15 16  1  0
 16 17  1  0
 17 18  1  0
 18 19  1  0
 19 20  1  0
 20 21  1  0
 21 22  1  0
 22 23  1  0
 23 24  1  0
 22 25  1  0
 25 26  1  0
 26 27  1  0
 27 28  1  0
 28 29  1  0
 26 30  1  0
 30 31  1  0
 31 32  1  0
 20 33  1  0
 33 34  1  0
 34 35  1  0
 34 36  1  0
 36 37  1  0
 37 38  1  0
 38 39  1  0
 39 40  1  0
 39 41  1  0
 39 42  1  0
 42 43  1  0
 43 44  1  0
  9  4  1  0
 38 16  1  0
  1 45  1  0
  1 46  1  0
  3 47  1  0
  3 48  1  0
  3 49  1  0
  5 50  1  0
  5 51  1  0
  6 52  1  0
  6 53  1  0
  7 54  1  0
  7 55  1  0
  7 56  1  0
  8 57  1  0
  8 58  1  0
 10 59  1  0
 10 60  1  0
 11 61  1  0
 12 62  1  0
 13 63  1  0
 13 64  1  0
 14 65  1  0
 14 66  1  0
 14 67  1  0
 15 68  1  0
 15 69  1  0
 16 70  1  0
 17 71  1  0
 17 72  1  0
 18 73  1  0
 18 74  1  0
 19 75  1  0
 19 76  1  0
 20 77  1  0
 21 78  1  0
 21 79  1  0
 22 80  1  0
 23 81  1  0
 23 82  1  0
 24 83  1  0
 24 84  1  0
 24 85  1  0
 25 86  1  0
 25 87  1  0
 26 88  1  0
 27 89  1  0
 27 90  1  0
 28 91  1  0
 28 92  1  0
 29 93  1  0
 29 94  1  0
 29 95  1  0
 30 96  1  0
 30 97  1  0
 31 98  1  0
 31 99  1  0
 32100  1  0
 32101  1  0
 32102  1  0
 33103  1  0
 33104  1  0
 34105  1  0
 35106  1  0
 35107  1  0
 35108  1  0
 36109  1  0
 36110  1  0
 37111  1  0
 38112  1  0
 40113  1  0
 40114  1  0
 40115  1  0
 41116  1  0
 42117  1  0
 42118  1  0
 43119  1  0
 43120  1  0
 44121  1  0
 44122  1  0
 44123  1  0
M  END
