
     RDKit          2D

 58 62  0  0  0  0  0  0  0  0999 V2000
   -3.4533   23.7395    0.6572 C   0  0  0  0  0  0  0  0  0  0  0  0
   -2.2477   23.3971    1.4813 C   0  0  0  0  0  0  0  0  0  0  0  0
   -1.0420   23.0547    2.3055 C   0  0  0  0  0  0  0  0  0  0  0  0
   -0.2425   23.2105    3.5651 C   0  0  0  0  0  0  0  0  0  0  0  0
   -1.4410   24.0924    3.7542 C   0  0  0  0  0  0  0  0  0  0  0  0
    1.0487   22.6456    4.0785 C   0  0  0  0  0  0  0  0  0  0  0  0
    0.5594   23.5504    5.1702 C   0  0  0  0  0  0  0  0  0  0  0  0
    0.0701   24.4552    6.2620 C   0  0  0  0  0  0  0  0  0  0  0  0
   -0.4192   25.3600    7.3537 C   0  0  0  0  0  0  0  0  0  0  0  0
    1.2770   24.1147    7.0852 C   0  0  0  0  0  0  0  0  0  0  0  0
    1.0047   24.9466    8.3032 C   0  0  0  0  0  0  0  0  0  0  0  0
    0.7324   25.7785    9.5213 C   0  0  0  0  0  0  0  0  0  0  0  0
    1.6991   25.7680   10.6681 C   0  0  0  0  0  0  0  0  0  0  0  0
    2.9381   24.9255   10.5970 C   0  0  0  0  0  0  0  0  0  0  0  0
    3.2104   24.0936    9.3789 C   0  0  0  0  0  0  0  0  0  0  0  0
    1.9714   24.9361    9.4501 C   0  0  0  0  0  0  0  0  0  0  0  0
    2.2437   24.1041    8.2320 N   0  0  0  0  0  0  0  0  0  0  0  0
    2.0753   21.6908    3.5451 C   0  0  0  0  0  0  0  0  0  0  0  0
    2.2359   20.9054    2.2773 C   0  0  0  0  0  0  0  0  0  0  0  0
    1.4364   20.7495    1.0177 C   0  0  0  0  0  0  0  0  0  0  0  0
    0.1452   21.3145    0.5042 C   0  0  0  0  0  0  0  0  0  0  0  0
   -1.0605   21.6569   -0.3199 C   0  0  0  0  0  0  0  0  0  0  0  0
   -0.8814   22.2693    1.0376 C   0  0  0  0  0  0  0  0  0  0  0  0
   -4.6589   24.0819   -0.1669 H   0  0  0  0  0  0  0  0  0  0  0  0
   -3.8867   24.7256    1.7011 H   0  0  0  0  0  0  0  0  0  0  0  0
   -3.1700   22.8024   -0.4794 H   0  0  0  0  0  0  0  0  0  0  0  0
   -1.9085   22.5413    0.2970 H   0  0  0  0  0  0  0  0  0  0  0  0
   -2.5078   23.8776    2.0617 H   0  0  0  0  0  0  0  0  0  0  0  0
   -1.7667   23.6669    2.5670 H   0  0  0  0  0  0  0  0  0  0  0  0
   -0.4813   23.8910    4.5428 H   0  0  0  0  0  0  0  0  0  0  0  0
   -2.6395   24.9743    3.9435 H   0  0  0  0  0  0  0  0  0  0  0  0
   -1.1526   24.4984    4.8626 H   0  0  0  0  0  0  0  0  0  0  0  0
   -1.9660   23.8606    2.6834 H   0  0  0  0  0  0  0  0  0  0  0  0
    2.0866   22.5490    5.1571 H   0  0  0  0  0  0  0  0  0  0  0  0
    1.8137   23.0973    5.8568 H   0  0  0  0  0  0  0  0  0  0  0  0
   -0.6949   24.0036    4.4837 H   0  0  0  0  0  0  0  0  0  0  0  0
   -1.1874   24.9035    5.5781 H   0  0  0  0  0  0  0  0  0  0  0  0
   -1.0518   26.2998    8.3369 H   0  0  0  0  0  0  0  0  0  0  0  0
   -1.6248   25.7024    6.5296 H   0  0  0  0  0  0  0  0  0  0  0  0
    0.6322   25.2467    8.4175 H   0  0  0  0  0  0  0  0  0  0  0  0
    2.0978   23.1498    6.2818 H   0  0  0  0  0  0  0  0  0  0  0  0
    2.0012   24.9024    9.4235 H   0  0  0  0  0  0  0  0  0  0  0  0
    0.0410   26.7287   10.4535 H   0  0  0  0  0  0  0  0  0  0  0  0
   -0.5252   26.2268    8.8374 H   0  0  0  0  0  0  0  0  0  0  0  0
    1.4268   26.5999   11.8862 H   0  0  0  0  0  0  0  0  0  0  0  0
    4.2396   24.2961   10.9971 H   0  0  0  0  0  0  0  0  0  0  0  0
    3.1178   25.5389   11.9540 H   0  0  0  0  0  0  0  0  0  0  0  0
    4.4494   23.2511    9.3076 H   0  0  0  0  0  0  0  0  0  0  0  0
    1.4849   24.5218    8.0929 H   0  0  0  0  0  0  0  0  0  0  0  0
    0.7200   25.3693    8.7455 H   0  0  0  0  0  0  0  0  0  0  0  0
    3.2067   21.4694    4.5047 H   0  0  0  0  0  0  0  0  0  0  0  0
    3.4902   20.0830    2.2665 H   0  0  0  0  0  0  0  0  0  0  0  0
    2.6349   19.8677    0.8285 H   0  0  0  0  0  0  0  0  0  0  0  0
    1.2573   20.1371   -0.3399 H   0  0  0  0  0  0  0  0  0  0  0  0
    0.4729   20.4621   -0.6857 H   0  0  0  0  0  0  0  0  0  0  0  0
   -0.7879   20.8253   -1.5382 H   0  0  0  0  0  0  0  0  0  0  0  0
   -2.3453   22.1940   -0.8774 H   0  0  0  0  0  0  0  0  0  0  0  0
   -2.1739   22.8410    0.5352 H   0  0  0  0  0  0  0  0  0  0  0  0
  1  2  1  0
  2  3  1  0
  3  4  1  0
  4  5  1  0
  4  6  1  0
  6  7  1  0
  7  8  1  0
  8  9  1  0
  8 10  1  0
 10 11  1  0
 11 12  1  0
 12 13  1  0
 13 14  1  0
 14 15  1  0
 15 16  1  0
 15 17  1  0
  6 18  1  0
 18 19  2  0
 19 20  1  0
 20 21  1  0
 21 22  1  0
 22 23  1  0
 23  3  1  0
 17 10  1  0
 23 21  1  0
 17 11  1  0
 16 13  1  0
  1 24  1  0
  1 25  1  0
  1 26  1  0
  2 27  1  0
  2 28  1  0
  3 29  1  0
  4 30  1  0
  5 31  1  0
  5 32  1  0
  5 33  1  0
  6 34  1  0
  7 35  1  0
  7 36  1  0
  8 37  1  0
  9 38  1  0
  9 39  1  0
  9 40  1  0
 10 41  1  0
 11 42  1  0
 12 43  1  0
 12 44  1  0
 13 45  1  0
 14 46  1  0
 14 47  1  0
 15 48  1  0
 16 49  1  0
 16 50  1  0
 18 51  1  0
 19 52  1  0
 20 53  1  0
 20 54  1  0
 21 55  1  0
 22 56  1  0
 22 57  1  0
 23 58  1  0
M  END
