
     RDKit          2D

106118  0  0  0  0  0  0  0  0999 V2000
   -5.5832   38.6307    7.2248 C   0  0  0  0  0  0  0  0  0  0  0  0
   -5.7321   37.1528    7.4340 C   0  0  0  0  0  0  0  0  0  0  0  0
   -5.8810   35.6749    7.6432 C   0  0  0  0  0  0  0  0  0  0  0  0
   -6.0299   34.1971    7.8523 C   0  0  0  0  0  0  0  0  0  0  0  0
   -7.3680   34.5710    8.4175 C   0  0  0  0  0  0  0  0  0  0  0  0
   -8.0577   33.3107    8.8486 N   0  0  0  0  0  0  0  0  0  0  0  0
   -7.1458   32.1578    8.5499 C   0  0  0  0  0  0  0  0  0  0  0  0
   -5.8925   32.7057    7.9342 C   0  0  0  0  0  0  0  0  0  0  0  0
   -7.5744   30.7581    8.8772 C   0  0  0  0  0  0  0  0  0  0  0  0
   -8.0030   29.3584    9.2045 C   0  0  0  0  0  0  0  0  0  0  0  0
   -6.6624   29.6052    8.5785 C   0  0  0  0  0  0  0  0  0  0  0  0
   -5.7505   28.4524    8.2798 C   0  0  0  0  0  0  0  0  0  0  0  0
   -6.1791   27.0527    8.6071 C   0  0  0  0  0  0  0  0  0  0  0  0
   -6.6078   25.6530    8.9344 C   0  0  0  0  0  0  0  0  0  0  0  0
   -7.4554   24.5166    9.4246 C   0  0  0  0  0  0  0  0  0  0  0  0
   -8.5080   23.6068    9.9851 C   0  0  0  0  0  0  0  0  0  0  0  0
   -9.8353   24.0311   10.5405 O   0  0  0  0  0  0  0  0  0  0  0  0
   -8.0004   22.1984    9.8926 C   0  0  0  0  0  0  0  0  0  0  0  0
   -6.6340   22.2376    9.2750 C   0  0  0  0  0  0  0  0  0  0  0  0
   -5.3162   22.5867    8.6494 C   0  0  0  0  0  0  0  0  0  0  0  0
   -4.2049   23.4116    8.0708 C   0  0  0  0  0  0  0  0  0  0  0  0
   -3.0938   24.2365    7.4922 C   0  0  0  0  0  0  0  0  0  0  0  0
   -1.9826   25.0614    6.9136 C   0  0  0  0  0  0  0  0  0  0  0  0
   -0.8714   25.8863    6.3350 C   0  0  0  0  0  0  0  0  0  0  0  0
    0.2398   26.7112    5.7564 C   0  0  0  0  0  0  0  0  0  0  0  0
    1.3510   27.5361    5.1778 C   0  0  0  0  0  0  0  0  0  0  0  0
    1.2240   25.6381    6.1167 C   0  0  0  0  0  0  0  0  0  0  0  0
    2.5177   24.9834    6.5008 C   0  0  0  0  0  0  0  0  0  0  0  0
    2.4571   26.4700    6.3105 C   0  0  0  0  0  0  0  0  0  0  0  0
    3.8832   26.8289    6.6061 C   0  0  0  0  0  0  0  0  0  0  0  0
   -6.2972   23.6704    8.9858 C   0  0  0  0  0  0  0  0  0  0  0  0
   -7.5197   26.8058    9.2331 C   0  0  0  0  0  0  0  0  0  0  0  0
   -8.4317   27.9588    9.5318 C   0  0  0  0  0  0  0  0  0  0  0  0
   -9.3436   29.1116    9.8305 C   0  0  0  0  0  0  0  0  0  0  0  0
  -10.2556   30.2644   10.1292 C   0  0  0  0  0  0  0  0  0  0  0  0
   -9.8270   31.6642    9.8019 C   0  0  0  0  0  0  0  0  0  0  0  0
   -9.8689   33.1584    9.6769 C   0  0  0  0  0  0  0  0  0  0  0  0
   -9.9110   34.6525    9.5520 C   0  0  0  0  0  0  0  0  0  0  0  0
  -10.4186   36.0610    9.6444 C   0  0  0  0  0  0  0  0  0  0  0  0
  -11.2662   34.9246   10.1346 C   0  0  0  0  0  0  0  0  0  0  0  0
   -8.4864   31.9110    9.1759 C   0  0  0  0  0  0  0  0  0  0  0  0
   -4.4500   27.9293    7.7460 C   0  0  0  0  0  0  0  0  0  0  0  0
   -3.4285   28.8799    7.1955 C   0  0  0  0  0  0  0  0  0  0  0  0
   -4.7291   29.4030    7.7294 C   0  0  0  0  0  0  0  0  0  0  0  0
   -5.0081   30.8767    7.7129 C   0  0  0  0  0  0  0  0  0  0  0  0
   -5.4344   40.1086    7.0157 H   0  0  0  0  0  0  0  0  0  0  0  0
   -7.0754   38.7729    7.1677 H   0  0  0  0  0  0  0  0  0  0  0  0
   -4.0911   38.4885    7.2820 H   0  0  0  0  0  0  0  0  0  0  0  0
   -7.0932   37.3735    8.0244 H   0  0  0  0  0  0  0  0  0  0  0  0
   -4.3710   36.9322    6.8436 H   0  0  0  0  0  0  0  0  0  0  0  0
   -4.5199   35.4543    7.0526 H   0  0  0  0  0  0  0  0  0  0  0  0
   -6.5892   35.8871    7.9411 H   0  0  0  0  0  0  0  0  0  0  0  0
   -4.6606   34.1321    7.2434 H   0  0  0  0  0  0  0  0  0  0  0  0
   -8.5388   35.3957    8.8640 H   0  0  0  0  0  0  0  0  0  0  0  0
   -7.2262   35.3432    8.2794 H   0  0  0  0  0  0  0  0  0  0  0  0
   -4.5519   32.9525    7.3082 H   0  0  0  0  0  0  0  0  0  0  0  0
   -5.8028   31.2120    8.0376 H   0  0  0  0  0  0  0  0  0  0  0  0
   -6.2088   30.5893    8.2800 H   0  0  0  0  0  0  0  0  0  0  0  0
   -5.5947   30.4942    8.0132 H   0  0  0  0  0  0  0  0  0  0  0  0
   -6.8472   31.0927    8.5183 H   0  0  0  0  0  0  0  0  0  0  0  0
   -7.3373   27.8990    9.0459 H   0  0  0  0  0  0  0  0  0  0  0  0
   -5.2805   25.2289    8.3790 H   0  0  0  0  0  0  0  0  0  0  0  0
   -8.5455   25.4669    9.8228 H   0  0  0  0  0  0  0  0  0  0  0  0
   -9.3183   21.8494   10.5183 H   0  0  0  0  0  0  0  0  0  0  0  0
   -7.7684   20.7169    9.9310 H   0  0  0  0  0  0  0  0  0  0  0  0
   -6.4020   20.7563    9.3134 H   0  0  0  0  0  0  0  0  0  0  0  0
   -4.7211   21.2164    8.5140 H   0  0  0  0  0  0  0  0  0  0  0  0
   -3.4075   22.1651    7.8251 H   0  0  0  0  0  0  0  0  0  0  0  0
   -4.7098   24.8207    8.1691 H   0  0  0  0  0  0  0  0  0  0  0  0
   -2.3520   22.9839    7.1308 H   0  0  0  0  0  0  0  0  0  0  0  0
   -3.8355   25.4892    7.8536 H   0  0  0  0  0  0  0  0  0  0  0  0
   -1.4384   23.8452    6.2247 H   0  0  0  0  0  0  0  0  0  0  0  0
   -2.5268   26.2776    7.6025 H   0  0  0  0  0  0  0  0  0  0  0  0
   -1.5510   27.1358    6.8111 H   0  0  0  0  0  0  0  0  0  0  0  0
   -0.3323   24.5455    5.9329 H   0  0  0  0  0  0  0  0  0  0  0  0
   -0.7444   27.7843    5.3961 H   0  0  0  0  0  0  0  0  0  0  0  0
    2.4622   28.3610    4.5992 H   0  0  0  0  0  0  0  0  0  0  0  0
    0.5577   28.7834    5.4327 H   0  0  0  0  0  0  0  0  0  0  0  0
    2.3896   26.5254    4.7905 H   0  0  0  0  0  0  0  0  0  0  0  0
    0.4804   24.3356    6.0945 H   0  0  0  0  0  0  0  0  0  0  0  0
    2.0758   23.5513    6.5655 H   0  0  0  0  0  0  0  0  0  0  0  0
    3.9306   24.6465    6.8756 H   0  0  0  0  0  0  0  0  0  0  0  0
    2.2443   27.9378    6.0864 H   0  0  0  0  0  0  0  0  0  0  0  0
    5.3093   27.1877    6.9017 H   0  0  0  0  0  0  0  0  0  0  0  0
    4.2125   25.3759    6.7808 H   0  0  0  0  0  0  0  0  0  0  0  0
    3.7301   28.3148    6.4687 H   0  0  0  0  0  0  0  0  0  0  0  0
   -5.4496   24.8068    8.4956 H   0  0  0  0  0  0  0  0  0  0  0  0
   -8.6448   26.0029    9.8158 H   0  0  0  0  0  0  0  0  0  0  0  0
   -7.2199   28.6022    8.9255 H   0  0  0  0  0  0  0  0  0  0  0  0
  -10.3651   28.1610   10.3809 H   0  0  0  0  0  0  0  0  0  0  0  0
  -11.4619   31.0227   10.5981 H   0  0  0  0  0  0  0  0  0  0  0  0
  -11.1032   29.1281   10.6194 H   0  0  0  0  0  0  0  0  0  0  0  0
  -11.1821   31.9363   10.3845 H   0  0  0  0  0  0  0  0  0  0  0  0
  -11.2224   32.9890   10.3012 H   0  0  0  0  0  0  0  0  0  0  0  0
   -8.5511   33.5075    9.0513 H   0  0  0  0  0  0  0  0  0  0  0  0
   -8.6144   35.0772    8.9286 H   0  0  0  0  0  0  0  0  0  0  0  0
   -9.2543   36.7971    9.0505 H   0  0  0  0  0  0  0  0  0  0  0  0
  -11.3305   37.2140    9.9431 H   0  0  0  0  0  0  0  0  0  0  0  0
  -12.4725   35.6829   10.6035 H   0  0  0  0  0  0  0  0  0  0  0  0
  -11.8501   33.5992   10.5245 H   0  0  0  0  0  0  0  0  0  0  0  0
   -4.1710   26.4556    7.7625 H   0  0  0  0  0  0  0  0  0  0  0  0
   -2.3530   27.9096    6.8058 H   0  0  0  0  0  0  0  0  0  0  0  0
   -2.7805   30.1674    6.7805 H   0  0  0  0  0  0  0  0  0  0  0  0
   -4.9238   32.3743    7.7306 H   0  0  0  0  0  0  0  0  0  0  0  0
   -3.5409   31.1561    7.8523 H   0  0  0  0  0  0  0  0  0  0  0  0
   -6.4303   30.4198    7.5766 H   0  0  0  0  0  0  0  0  0  0  0  0
  1  2  1  0
  2  3  1  0
  3  4  1  0
  4  5  1  0
  5  6  1  0
  6  7  1  0
  7  8  1  0
  7  9  1  0
  9 10  1  0
 10 11  1  0
 11 12  1  0
 12 13  1  0
 13 14  1  0
 14 15  1  0
 15 16  1  0
 16 17  2  0
 16 18  1  0
 18 19  1  0
 19 20  1  0
 20 21  1  0
 21 22  1  0
 22 23  1  0
 23 24  1  0
 24 25  1  0
 25 26  1  0
 25 27  1  0
 27 28  1  0
 28 29  1  0
 29 30  1  0
 20 31  1  0
 14 32  1  0
 32 33  1  0
 33 34  1  0
 34 35  1  0
 35 36  1  0
 36 37  1  0
 37 38  1  0
 38 39  1  0
 39 40  1  0
 36 41  1  0
 12 42  1  0
 42 43  1  0
 43 44  1  0
 44 45  1  0
  8  4  1  0
 41  9  1  0
 44 42  1  0
 41  6  1  0
 41  7  1  0
 33 10  1  0
 40 38  1  0
 34 10  1  0
 44 12  1  0
 32 13  1  0
 31 15  1  0
 31 19  1  0
 29 27  1  0
  1 46  1  0
  1 47  1  0
  1 48  1  0
  2 49  1  0
  2 50  1  0
  3 51  1  0
  3 52  1  0
  4 53  1  0
  5 54  1  0
  5 55  1  0
  8 56  1  0
  8 57  1  0
  9 58  1  0
 11 59  1  0
 11 60  1  0
 13 61  1  0
 14 62  1  0
 15 63  1  0
 18 64  1  0
 18 65  1  0
 19 66  1  0
 20 67  1  0
 21 68  1  0
 21 69  1  0
 22 70  1  0
 22 71  1  0
 23 72  1  0
 23 73  1  0
 24 74  1  0
 24 75  1  0
 25 76  1  0
 26 77  1  0
 26 78  1  0
 26 79  1  0
 27 80  1  0
 28 81  1  0
 28 82  1  0
 29 83  1  0
 30 84  1  0
 30 85  1  0
 30 86  1  0
 31 87  1  0
 32 88  1  0
 33 89  1  0
 34 90  1  0
 35 91  1  0
 35 92  1  0
 36 93  1  0
 37 94  1  0
 37 95  1  0
 38 96  1  0
 39 97  1  0
 39 98  1  0
 40 99  1  0
 40100  1  0
 42101  1  0
 43102  1  0
 43103  1  0
 45104  1  0
 45105  1  0
 45106  1  0
M  END
