
     RDKit          2D

 37 42  0  0  0  0  0  0  0  0999 V2000
   20.9469  -16.7932  -10.4324 C   0  0  0  0  0  0  0  0  0  0  0  0
   20.0690  -17.5423   -9.4741 C   0  0  0  0  0  0  0  0  0  0  0  0
   19.6186  -18.9350   -9.8016 C   0  0  0  0  0  0  0  0  0  0  0  0
   20.0460  -19.5788  -11.0872 C   0  0  0  0  0  0  0  0  0  0  0  0
   19.5955  -20.9716  -11.4146 N   0  0  0  0  0  0  0  0  0  0  0  0
   18.7406  -19.6841   -8.8433 C   0  0  0  0  0  0  0  0  0  0  0  0
   18.5751  -20.9721   -9.5940 N   0  0  0  0  0  0  0  0  0  0  0  0
   17.7456  -22.0781   -9.0121 C   0  0  0  0  0  0  0  0  0  0  0  0
   16.9161  -23.1841   -8.4301 C   0  0  0  0  0  0  0  0  0  0  0  0
   16.3416  -24.5663   -8.5276 C   0  0  0  0  0  0  0  0  0  0  0  0
   15.6776  -24.3843   -7.1949 C   0  0  0  0  0  0  0  0  0  0  0  0
   14.9509  -25.6723   -6.9441 O   0  0  0  0  0  0  0  0  0  0  0  0
   15.3899  -23.5356   -5.9921 C   0  0  0  0  0  0  0  0  0  0  0  0
   14.5230  -24.4774   -5.2101 O   0  0  0  0  0  0  0  0  0  0  0  0
   16.2521  -23.0021   -7.0975 C   0  0  0  0  0  0  0  0  0  0  0  0
   16.4176  -21.7141   -6.3467 C   0  0  0  0  0  0  0  0  0  0  0  0
   16.5832  -20.4260   -5.5960 C   0  0  0  0  0  0  0  0  0  0  0  0
   17.2472  -20.6081   -6.9287 C   0  0  0  0  0  0  0  0  0  0  0  0
   17.9111  -20.7901   -8.2613 C   0  0  0  0  0  0  0  0  0  0  0  0
   21.3974  -15.4004  -10.1050 H   0  0  0  0  0  0  0  0  0  0  0  0
   21.3744  -17.4369  -11.7180 H   0  0  0  0  0  0  0  0  0  0  0  0
   19.6416  -16.8985   -8.1885 H   0  0  0  0  0  0  0  0  0  0  0  0
   20.9239  -18.8297  -12.0454 H   0  0  0  0  0  0  0  0  0  0  0  0
   18.7176  -21.7206  -10.4563 H   0  0  0  0  0  0  0  0  0  0  0  0
   20.0229  -21.6154  -12.7002 H   0  0  0  0  0  0  0  0  0  0  0  0
   18.6013  -18.6562   -7.7597 H   0  0  0  0  0  0  0  0  0  0  0  0
   18.0333  -22.9269  -10.2149 H   0  0  0  0  0  0  0  0  0  0  0  0
   17.4087  -23.7176   -9.7426 H   0  0  0  0  0  0  0  0  0  0  0  0
   15.7671  -25.9485   -8.6250 H   0  0  0  0  0  0  0  0  0  0  0  0
   17.0055  -24.7483   -9.8603 H   0  0  0  0  0  0  0  0  0  0  0  0
   14.1608  -25.8542   -5.6821 H   0  0  0  0  0  0  0  0  0  0  0  0
   15.4032  -22.3597   -5.0608 H   0  0  0  0  0  0  0  0  0  0  0  0
   13.9689  -24.0582   -3.8808 H   0  0  0  0  0  0  0  0  0  0  0  0
   17.2142  -21.5081   -7.6009 H   0  0  0  0  0  0  0  0  0  0  0  0
   15.7628  -20.7277   -4.3770 H   0  0  0  0  0  0  0  0  0  0  0  0
   17.0337  -19.0333   -5.2686 H   0  0  0  0  0  0  0  0  0  0  0  0
   16.8655  -21.2974   -6.8075 H   0  0  0  0  0  0  0  0  0  0  0  0
  1  2  2  3
  2  3  1  0
  3  4  2  3
  4  5  1  0
  3  6  1  0
  6  7  1  0
  7  8  1  0
  8  9  1  0
  9 10  1  0
 10 11  1  0
 11 12  1  6
 11 13  1  0
 13 14  1  0
 13 15  1  0
 15 16  1  0
 16 17  1  0
 17 18  1  0
 18 19  1  0
 19  6  1  0
 19  7  1  6
 19  8  1  0
 15  9  1  0
 18 16  1  0
 15 11  1  6
  1 20  1  0
  1 21  1  0
  2 22  1  0
  4 23  1  0
  5 24  1  0
  5 25  1  0
  6 26  1  1
  8 27  1  6
  9 28  1  6
 10 29  1  0
 10 30  1  0
 12 31  1  0
 13 32  1  1
 14 33  1  0
 16 34  1  1
 17 35  1  0
 17 36  1  0
 18 37  1  1
M  END
