
     RDKit          2D

 93 97  0  0  0  0  0  0  0  0999 V2000
   24.2143  -13.4345   -0.2577 C   0  0  0  0  0  0  0  0  0  0  0  0
   23.7500  -14.2830   -1.4042 C   0  0  0  0  0  0  0  0  0  0  0  0
   23.2857  -15.1314   -2.5508 C   0  0  0  0  0  0  0  0  0  0  0  0
   22.8214  -15.9799   -3.6973 C   0  0  0  0  0  0  0  0  0  0  0  0
   22.9371  -16.2786   -5.1627 C   0  0  0  0  0  0  0  0  0  0  0  0
   22.3696  -17.2079   -6.1943 C   0  0  0  0  0  0  0  0  0  0  0  0
   21.3843  -18.3332   -6.3093 C   0  0  0  0  0  0  0  0  0  0  0  0
   21.2853  -18.8519   -7.7133 C   0  0  0  0  0  0  0  0  0  0  0  0
   20.2821  -19.9670   -7.7257 C   0  0  0  0  0  0  0  0  0  0  0  0
   19.3470  -21.0959   -8.0439 C   0  0  0  0  0  0  0  0  0  0  0  0
   19.7666  -21.0378   -9.4828 C   0  0  0  0  0  0  0  0  0  0  0  0
   18.4119  -22.2248   -8.3621 O   0  0  0  0  0  0  0  0  0  0  0  0
   19.7612  -20.1375   -6.3294 C   0  0  0  0  0  0  0  0  0  0  0  0
   20.4424  -19.1277   -5.4540 C   0  0  0  0  0  0  0  0  0  0  0  0
   19.9846  -19.2198   -4.0286 C   0  0  0  0  0  0  0  0  0  0  0  0
   20.2250  -18.5664   -2.7000 C   0  0  0  0  0  0  0  0  0  0  0  0
   19.1992  -19.6370   -2.4734 C   0  0  0  0  0  0  0  0  0  0  0  0
   18.9657  -19.4668   -1.0015 C   0  0  0  0  0  0  0  0  0  0  0  0
   18.7323  -19.2967    0.4704 C   0  0  0  0  0  0  0  0  0  0  0  0
   17.4727  -20.1042    0.3640 C   0  0  0  0  0  0  0  0  0  0  0  0
   16.7472  -20.7956   -0.7521 C   0  0  0  0  0  0  0  0  0  0  0  0
   16.0216  -21.4870   -1.8681 C   0  0  0  0  0  0  0  0  0  0  0  0
   15.2960  -22.1785   -2.9842 C   0  0  0  0  0  0  0  0  0  0  0  0
   14.5705  -22.8698   -4.1002 C   0  0  0  0  0  0  0  0  0  0  0  0
   13.5276  -23.6737   -4.8187 N   0  0  0  0  0  0  0  0  0  0  0  0
   13.4049  -23.4339   -3.3431 C   0  0  0  0  0  0  0  0  0  0  0  0
   13.7256  -22.9383   -1.9642 C   0  0  0  0  0  0  0  0  0  0  0  0
   17.2392  -19.9340    1.8359 C   0  0  0  0  0  0  0  0  0  0  0  0
   18.4988  -19.1265    1.9423 C   0  0  0  0  0  0  0  0  0  0  0  0
   19.7584  -18.3189    2.0487 C   0  0  0  0  0  0  0  0  0  0  0  0
   18.2653  -18.9563    3.4142 C   0  0  0  0  0  0  0  0  0  0  0  0
   18.0319  -18.7861    4.8861 C   0  0  0  0  0  0  0  0  0  0  0  0
   18.2545  -20.7668   -2.7581 C   0  0  0  0  0  0  0  0  0  0  0  0
   19.0764  -20.1791   -3.8667 C   0  0  0  0  0  0  0  0  0  0  0  0
   21.0512  -17.4731   -2.0898 C   0  0  0  0  0  0  0  0  0  0  0  0
   22.0766  -16.4517   -2.4838 C   0  0  0  0  0  0  0  0  0  0  0  0
   23.3054  -14.1877    0.6678 H   0  0  0  0  0  0  0  0  0  0  0  0
   25.1232  -12.6812   -1.1831 H   0  0  0  0  0  0  0  0  0  0  0  0
   24.6786  -12.5860    0.8889 H   0  0  0  0  0  0  0  0  0  0  0  0
   24.6718  -13.5414   -2.3263 H   0  0  0  0  0  0  0  0  0  0  0  0
   22.8281  -15.0245   -0.4822 H   0  0  0  0  0  0  0  0  0  0  0  0
   23.7000  -14.0579   -3.5130 H   0  0  0  0  0  0  0  0  0  0  0  0
   22.9960  -15.9677   -1.3397 H   0  0  0  0  0  0  0  0  0  0  0  0
   23.8325  -15.0214   -4.2532 H   0  0  0  0  0  0  0  0  0  0  0  0
   23.9359  -15.3565   -5.7969 H   0  0  0  0  0  0  0  0  0  0  0  0
   22.9801  -16.9217   -7.5341 H   0  0  0  0  0  0  0  0  0  0  0  0
   22.1639  -17.7400   -7.2384 H   0  0  0  0  0  0  0  0  0  0  0  0
   22.2039  -17.9566   -8.1342 H   0  0  0  0  0  0  0  0  0  0  0  0
   21.4009  -19.1506   -9.1787 H   0  0  0  0  0  0  0  0  0  0  0  0
   20.5430  -19.9243   -8.5710 H   0  0  0  0  0  0  0  0  0  0  0  0
   19.0651  -21.1997   -7.3055 H   0  0  0  0  0  0  0  0  0  0  0  0
   18.8318  -22.1671   -9.8010 H   0  0  0  0  0  0  0  0  0  0  0  0
   20.3446  -20.3719   -9.3999 H   0  0  0  0  0  0  0  0  0  0  0  0
   20.1861  -20.9799  -10.9218 H   0  0  0  0  0  0  0  0  0  0  0  0
   17.5759  -22.8350   -7.2763 H   0  0  0  0  0  0  0  0  0  0  0  0
   19.2859  -20.7327   -6.5644 H   0  0  0  0  0  0  0  0  0  0  0  0
   18.9049  -20.7805   -5.2790 H   0  0  0  0  0  0  0  0  0  0  0  0
   20.6991  -19.2718   -6.9249 H   0  0  0  0  0  0  0  0  0  0  0  0
   18.9980  -20.1105   -3.3333 H   0  0  0  0  0  0  0  0  0  0  0  0
   19.1548  -20.3147   -4.6309 H   0  0  0  0  0  0  0  0  0  0  0  0
   19.8770  -18.5271   -1.2414 H   0  0  0  0  0  0  0  0  0  0  0  0
   17.6033  -20.0772   -1.1470 H   0  0  0  0  0  0  0  0  0  0  0  0
   20.2312  -18.8335   -0.5041 H   0  0  0  0  0  0  0  0  0  0  0  0
   20.0109  -18.5158    0.3966 H   0  0  0  0  0  0  0  0  0  0  0  0
   15.8559  -21.4725    0.2467 H   0  0  0  0  0  0  0  0  0  0  0  0
   17.4363  -20.3062   -1.9912 H   0  0  0  0  0  0  0  0  0  0  0  0
   16.9812  -21.1243   -2.9624 H   0  0  0  0  0  0  0  0  0  0  0  0
   14.9657  -21.9374   -0.9027 H   0  0  0  0  0  0  0  0  0  0  0  0
   16.2559  -21.8161   -4.0784 H   0  0  0  0  0  0  0  0  0  0  0  0
   14.4468  -22.4477   -1.7774 H   0  0  0  0  0  0  0  0  0  0  0  0
   15.4841  -22.5459   -5.2450 H   0  0  0  0  0  0  0  0  0  0  0  0
   12.9965  -24.2763   -6.0855 H   0  0  0  0  0  0  0  0  0  0  0  0
   12.1279  -24.1700   -3.0650 H   0  0  0  0  0  0  0  0  0  0  0  0
   12.5521  -23.6967   -1.4186 H   0  0  0  0  0  0  0  0  0  0  0  0
   14.9420  -22.0825   -2.1597 H   0  0  0  0  0  0  0  0  0  0  0  0
   14.0464  -22.4428   -0.5852 H   0  0  0  0  0  0  0  0  0  0  0  0
   16.1835  -20.3848    2.8014 H   0  0  0  0  0  0  0  0  0  0  0  0
   19.4362  -17.6484    3.3513 H   0  0  0  0  0  0  0  0  0  0  0  0
   20.3876  -18.7925    0.7721 H   0  0  0  0  0  0  0  0  0  0  0  0
   21.0179  -17.5113    2.1551 H   0  0  0  0  0  0  0  0  0  0  0  0
   17.1732  -19.9831    3.3597 H   0  0  0  0  0  0  0  0  0  0  0  0
   19.3208  -17.9164    3.6477 H   0  0  0  0  0  0  0  0  0  0  0  0
   16.6173  -19.2552    4.7160 H   0  0  0  0  0  0  0  0  0  0  0  0
   19.4464  -18.3170    5.0563 H   0  0  0  0  0  0  0  0  0  0  0  0
   17.7984  -18.6159    6.3581 H   0  0  0  0  0  0  0  0  0  0  0  0
   17.5014  -21.2506   -1.5544 H   0  0  0  0  0  0  0  0  0  0  0  0
   17.6970  -21.6887   -3.8019 H   0  0  0  0  0  0  0  0  0  0  0  0
   18.5039  -21.1122   -4.8921 H   0  0  0  0  0  0  0  0  0  0  0  0
   19.9582  -19.4937   -4.8680 H   0  0  0  0  0  0  0  0  0  0  0  0
   21.2858  -16.8251   -0.7576 H   0  0  0  0  0  0  0  0  0  0  0  0
   20.4029  -17.8099   -0.7798 H   0  0  0  0  0  0  0  0  0  0  0  0
   22.7259  -15.4634   -1.5608 H   0  0  0  0  0  0  0  0  0  0  0  0
   21.8432  -16.2815   -1.0118 H   0  0  0  0  0  0  0  0  0  0  0  0
  1  2  1  0
  2  3  1  0
  3  4  1  0
  4  5  1  0
  5  6  2  0
  6  7  1  0
  7  8  1  0
  8  9  1  0
  9 10  1  0
 10 11  1  0
 10 12  1  0
  9 13  1  0
 13 14  1  0
 14 15  1  0
 15 16  1  0
 16 17  1  0
 17 18  1  0
 18 19  1  0
 19 20  1  0
 20 21  1  0
 21 22  1  0
 22 23  1  0
 23 24  1  0
 24 25  1  0
 25 26  1  0
 26 27  1  0
 20 28  2  0
 28 29  1  0
 29 30  1  0
 29 31  1  0
 31 32  1  0
 17 33  1  0
 33 34  1  0
 16 35  1  0
 35 36  1  0
 36  4  1  0
 14  7  1  0
 34 17  1  0
 29 19  1  0
 26 24  1  0
  1 37  1  0
  1 38  1  0
  1 39  1  0
  2 40  1  0
  2 41  1  0
  3 42  1  0
  3 43  1  0
  4 44  1  0
  5 45  1  0
  6 46  1  0
  7 47  1  0
  8 48  1  0
  8 49  1  0
  9 50  1  0
 10 51  1  0
 11 52  1  0
 11 53  1  0
 11 54  1  0
 12 55  1  0
 13 56  1  0
 13 57  1  0
 14 58  1  0
 15 59  1  0
 15 60  1  0
 16 61  1  0
 18 62  1  0
 18 63  1  0
 19 64  1  0
 21 65  1  0
 21 66  1  0
 22 67  1  0
 22 68  1  0
 23 69  1  0
 23 70  1  0
 24 71  1  0
 25 72  1  0
 26 73  1  0
 27 74  1  0
 27 75  1  0
 27 76  1  0
 28 77  1  0
 30 78  1  0
 30 79  1  0
 30 80  1  0
 31 81  1  0
 31 82  1  0
 32 83  1  0
 32 84  1  0
 32 85  1  0
 33 86  1  0
 33 87  1  0
 34 88  1  0
 34 89  1  0
 35 90  1  0
 35 91  1  0
 36 92  1  0
 36 93  1  0
M  END
