
     RDKit          2D

 38 40  0  0  0  0  0  0  0  0999 V2000
   14.1397  -23.8871   -8.4137 C   0  0  0  0  0  0  0  0  0  0  0  0
   14.9600  -22.6357   -8.5206 C   0  0  0  0  0  0  0  0  0  0  0  0
   15.2853  -22.0651   -9.8691 C   0  0  0  0  0  0  0  0  0  0  0  0
   15.6106  -21.4944  -11.2176 C   0  0  0  0  0  0  0  0  0  0  0  0
   15.9359  -20.9237  -12.5661 C   0  0  0  0  0  0  0  0  0  0  0  0
   16.2612  -20.3530  -13.9146 C   0  0  0  0  0  0  0  0  0  0  0  0
   16.5864  -19.7823  -15.2632 C   0  0  0  0  0  0  0  0  0  0  0  0
   16.9117  -19.2116  -16.6117 N   0  0  0  0  0  0  0  0  0  0  0  0
   18.1620  -20.0388  -16.6601 C   0  0  0  0  0  0  0  0  0  0  0  0
   19.4075  -20.4699  -17.3764 C   0  0  0  0  0  0  0  0  0  0  0  0
   20.3277  -21.4716  -16.7441 C   0  0  0  0  0  0  0  0  0  0  0  0
   20.0024  -22.0424  -15.3956 C   0  0  0  0  0  0  0  0  0  0  0  0
   19.6771  -22.6130  -14.0471 C   0  0  0  0  0  0  0  0  0  0  0  0
   18.7569  -21.6113  -14.6793 C   0  0  0  0  0  0  0  0  0  0  0  0
   17.8367  -20.6095  -15.3117 C   0  0  0  0  0  0  0  0  0  0  0  0
   13.8144  -24.4578   -7.0653 H   0  0  0  0  0  0  0  0  0  0  0  0
   13.6448  -24.5677   -9.6554 H   0  0  0  0  0  0  0  0  0  0  0  0
   15.4549  -21.9551   -7.2789 H   0  0  0  0  0  0  0  0  0  0  0  0
   16.1910  -23.2289  -10.1431 H   0  0  0  0  0  0  0  0  0  0  0  0
   14.3795  -20.9012   -9.5950 H   0  0  0  0  0  0  0  0  0  0  0  0
   14.3589  -20.6691  -11.1702 H   0  0  0  0  0  0  0  0  0  0  0  0
   16.8623  -22.3196  -11.2649 H   0  0  0  0  0  0  0  0  0  0  0  0
   17.1880  -21.7482  -12.6130 H   0  0  0  0  0  0  0  0  0  0  0  0
   14.6836  -20.0991  -12.5192 H   0  0  0  0  0  0  0  0  0  0  0  0
   16.8651  -20.8515  -13.7653 H   0  0  0  0  0  0  0  0  0  0  0  0
   15.0088  -19.5287  -13.8678 H   0  0  0  0  0  0  0  0  0  0  0  0
   15.3361  -18.9550  -15.2147 H   0  0  0  0  0  0  0  0  0  0  0  0
   16.2576  -18.2231  -17.5309 H   0  0  0  0  0  0  0  0  0  0  0  0
   17.9952  -19.1998  -17.8923 H   0  0  0  0  0  0  0  0  0  0  0  0
   20.4604  -20.5645  -18.4405 H   0  0  0  0  0  0  0  0  0  0  0  0
   18.9994  -19.5408  -18.4809 H   0  0  0  0  0  0  0  0  0  0  0  0
   21.5026  -22.3854  -16.5577 H   0  0  0  0  0  0  0  0  0  0  0  0
   21.0610  -21.2183  -18.0279 H   0  0  0  0  0  0  0  0  0  0  0  0
   21.2527  -22.8696  -15.4440 H   0  0  0  0  0  0  0  0  0  0  0  0
   20.8520  -23.5268  -13.8607 H   0  0  0  0  0  0  0  0  0  0  0  0
   18.9438  -22.8664  -12.7633 H   0  0  0  0  0  0  0  0  0  0  0  0
   18.0478  -21.7932  -13.5451 H   0  0  0  0  0  0  0  0  0  0  0  0
   17.5438  -20.8753  -14.5191 H   0  0  0  0  0  0  0  0  0  0  0  0
  1  2  2  3
  2  3  1  0
  3  4  1  0
  4  5  1  0
  5  6  1  0
  6  7  1  0
  7  8  1  0
  8  9  1  0
  9 10  1  0
 10 11  1  0
 11 12  1  0
 12 13  1  0
 13 14  1  0
 14 15  1  0
 15  7  1  0
 15  9  1  0
 14 12  1  0
  1 16  1  0
  1 17  1  0
  2 18  1  0
  3 19  1  0
  3 20  1  0
  4 21  1  0
  4 22  1  0
  5 23  1  0
  5 24  1  0
  6 25  1  0
  6 26  1  0
  7 27  1  0
  8 28  1  0
  9 29  1  0
 10 30  1  0
 10 31  1  0
 11 32  1  0
 11 33  1  0
 12 34  1  0
 13 35  1  0
 13 36  1  0
 14 37  1  0
 15 38  1  0
M  END
