
     RDKit          2D

 43 45  0  0  0  0  0  0  0  0999 V2000
   25.3627  -20.5569  -17.2217 O   0  0  0  0  0  0  0  0  0  0  0  0
   24.7499  -21.7563  -16.5614 C   0  0  0  0  0  0  0  0  0  0  0  0
   25.2899  -22.9507  -17.2906 O   0  0  0  0  0  0  0  0  0  0  0  0
   23.7937  -21.9430  -15.4208 C   0  0  0  0  0  0  0  0  0  0  0  0
   22.8375  -22.1298  -14.2802 C   0  0  0  0  0  0  0  0  0  0  0  0
   22.2975  -20.9355  -13.5510 C   0  0  0  0  0  0  0  0  0  0  0  0
   21.3414  -21.1222  -12.4105 C   0  0  0  0  0  0  0  0  0  0  0  0
   21.4134  -22.6093  -12.5936 C   0  0  0  0  0  0  0  0  0  0  0  0
   20.4573  -22.7961  -11.4530 C   0  0  0  0  0  0  0  0  0  0  0  0
   19.6653  -23.7013  -10.5568 C   0  0  0  0  0  0  0  0  0  0  0  0
   18.8012  -23.1196   -9.4775 C   0  0  0  0  0  0  0  0  0  0  0  0
   18.7291  -21.6325   -9.2944 C   0  0  0  0  0  0  0  0  0  0  0  0
   18.3344  -20.2991   -8.7322 O   0  0  0  0  0  0  0  0  0  0  0  0
   19.5211  -20.7273  -10.1906 C   0  0  0  0  0  0  0  0  0  0  0  0
   20.3852  -21.3090  -11.2699 C   0  0  0  0  0  0  0  0  0  0  0  0
   23.7211  -20.4560  -15.2381 C   0  0  0  0  0  0  0  0  0  0  0  0
   23.6485  -18.9689  -15.0555 C   0  0  0  0  0  0  0  0  0  0  0  0
   23.9073  -17.5077  -15.2739 C   0  0  0  0  0  0  0  0  0  0  0  0
   24.5776  -18.5268  -16.1469 C   0  0  0  0  0  0  0  0  0  0  0  0
   26.2460  -22.7639  -18.4311 H   0  0  0  0  0  0  0  0  0  0  0  0
   23.8664  -23.4301  -15.6035 H   0  0  0  0  0  0  0  0  0  0  0  0
   22.5919  -22.9455  -14.0373 H   0  0  0  0  0  0  0  0  0  0  0  0
   22.5218  -19.8844  -13.7527 H   0  0  0  0  0  0  0  0  0  0  0  0
   21.2692  -19.6352  -12.2273 H   0  0  0  0  0  0  0  0  0  0  0  0
   21.4855  -24.0963  -12.7766 H   0  0  0  0  0  0  0  0  0  0  0  0
   21.9715  -22.7148  -13.2732 H   0  0  0  0  0  0  0  0  0  0  0  0
   20.8823  -24.1048  -12.0501 H   0  0  0  0  0  0  0  0  0  0  0  0
   19.1059  -24.9605   -9.9639 H   0  0  0  0  0  0  0  0  0  0  0  0
   20.2464  -24.8468  -11.3315 H   0  0  0  0  0  0  0  0  0  0  0  0
   17.8471  -23.0453   -8.3225 H   0  0  0  0  0  0  0  0  0  0  0  0
   18.5419  -24.5808   -9.2595 H   0  0  0  0  0  0  0  0  0  0  0  0
   17.8000  -22.0747   -8.2030 H   0  0  0  0  0  0  0  0  0  0  0  0
   17.3802  -20.2248   -7.5772 H   0  0  0  0  0  0  0  0  0  0  0  0
   19.9814  -19.3783  -10.6582 H   0  0  0  0  0  0  0  0  0  0  0  0
   18.8513  -19.7082   -9.3172 H   0  0  0  0  0  0  0  0  0  0  0  0
   20.6766  -19.8603  -11.5274 H   0  0  0  0  0  0  0  0  0  0  0  0
   24.6752  -20.2691  -16.3804 H   0  0  0  0  0  0  0  0  0  0  0  0
   23.0334  -20.3258  -14.3980 H   0  0  0  0  0  0  0  0  0  0  0  0
   22.7127  -18.7127  -13.9115 H   0  0  0  0  0  0  0  0  0  0  0  0
   23.0428  -16.9259  -14.1950 H   0  0  0  0  0  0  0  0  0  0  0  0
   24.4663  -16.2485  -15.8670 H   0  0  0  0  0  0  0  0  0  0  0  0
   25.3695  -17.6215  -17.0432 H   0  0  0  0  0  0  0  0  0  0  0  0
   25.1726  -19.6551  -16.9361 H   0  0  0  0  0  0  0  0  0  0  0  0
  1  2  2  0
  2  3  1  0
  2  4  1  0
  4  5  1  0
  5  6  2  3
  6  7  1  0
  7  8  1  0
  8  9  1  0
  9 10  1  0
 10 11  1  0
 11 12  1  0
 12 13  1  0
 12 14  1  0
 14 15  1  0
  4 16  1  0
 16 17  1  0
 17 18  1  0
 18 19  1  0
 15  7  1  0
 19 17  1  0
 15  9  1  0
  3 20  1  0
  4 21  1  6
  5 22  1  0
  6 23  1  0
  7 24  1  6
  8 25  1  0
  8 26  1  0
  9 27  1  1
 10 28  1  0
 10 29  1  0
 11 30  1  0
 11 31  1  0
 12 32  1  6
 13 33  1  0
 14 34  1  0
 14 35  1  0
 15 36  1  6
 16 37  1  0
 16 38  1  0
 17 39  1  0
 18 40  1  0
 18 41  1  0
 19 42  1  0
 19 43  1  0
M  END
