
     RDKit          2D

105113  0  0  0  0  0  0  0  0999 V2000
   16.7091  -20.1438   -5.4149 C   0  0  0  0  0  0  0  0  0  0  0  0
   16.3473  -19.9114   -6.8519 C   0  0  0  0  0  0  0  0  0  0  0  0
   15.1288  -19.1079   -7.1980 C   0  0  0  0  0  0  0  0  0  0  0  0
   15.4099  -19.3101   -8.6574 O   0  0  0  0  0  0  0  0  0  0  0  0
   16.6058  -20.1071   -9.0875 C   0  0  0  0  0  0  0  0  0  0  0  0
   16.4532  -20.0223  -10.5773 C   0  0  0  0  0  0  0  0  0  0  0  0
   17.6043  -20.7784   -9.9830 C   0  0  0  0  0  0  0  0  0  0  0  0
   17.6503  -20.8237  -11.3339 C   0  0  0  0  0  0  0  0  0  0  0  0
   19.1468  -21.8032  -10.2463 C   0  0  0  0  0  0  0  0  0  0  0  0
   20.0615  -22.3979   -9.2168 N   0  0  0  0  0  0  0  0  0  0  0  0
   19.7804  -22.1956   -7.7574 C   0  0  0  0  0  0  0  0  0  0  0  0
   17.3801  -20.6538  -12.1674 C   0  0  0  0  0  0  0  0  0  0  0  0
   16.2236  -19.8922  -12.5826 C   0  0  0  0  0  0  0  0  0  0  0  0
   14.9706  -19.0661  -12.9471 C   0  0  0  0  0  0  0  0  0  0  0  0
   16.1664  -19.8630  -13.3772 C   0  0  0  0  0  0  0  0  0  0  0  0
   15.5986  -19.5015  -14.7177 C   0  0  0  0  0  0  0  0  0  0  0  0
   17.1650  -20.5344  -14.2727 C   0  0  0  0  0  0  0  0  0  0  0  0
   18.4138  -21.3607  -14.1854 C   0  0  0  0  0  0  0  0  0  0  0  0
   19.3285  -21.9554  -13.1560 C   0  0  0  0  0  0  0  0  0  0  0  0
   19.4811  -22.0402  -11.6662 C   0  0  0  0  0  0  0  0  0  0  0  0
   20.0490  -22.4017  -10.3258 C   0  0  0  0  0  0  0  0  0  0  0  0
   21.2448  -23.1986  -10.7558 C   0  0  0  0  0  0  0  0  0  0  0  0
   22.4406  -23.9955  -11.1858 C   0  0  0  0  0  0  0  0  0  0  0  0
   22.0815  -23.7589  -12.6229 C   0  0  0  0  0  0  0  0  0  0  0  0
   22.7998  -24.2322   -9.7488 C   0  0  0  0  0  0  0  0  0  0  0  0
   23.6364  -24.7925  -11.6159 C   0  0  0  0  0  0  0  0  0  0  0  0
   23.5118  -26.2705  -11.8394 C   0  0  0  0  0  0  0  0  0  0  0  0
   18.8002  -21.5754  -10.4131 C   0  0  0  0  0  0  0  0  0  0  0  0
   18.1327  -21.1585  -12.7260 C   0  0  0  0  0  0  0  0  0  0  0  0
   17.1341  -20.4872  -11.8304 C   0  0  0  0  0  0  0  0  0  0  0  0
   18.1416  -21.1448  -10.9345 C   0  0  0  0  0  0  0  0  0  0  0  0
   19.1491  -21.8024  -10.0387 C   0  0  0  0  0  0  0  0  0  0  0  0
   20.1566  -22.4600   -9.1429 N   0  0  0  0  0  0  0  0  0  0  0  0
   15.8854  -19.6608  -11.9177 C   0  0  0  0  0  0  0  0  0  0  0  0
   13.9103  -18.3045   -7.5440 C   0  0  0  0  0  0  0  0  0  0  0  0
   13.8406  -18.2515   -6.0465 C   0  0  0  0  0  0  0  0  0  0  0  0
   12.7236  -17.5105   -5.3735 C   0  0  0  0  0  0  0  0  0  0  0  0
   11.6763  -16.8223   -6.1978 C   0  0  0  0  0  0  0  0  0  0  0  0
   11.7460  -16.8752   -7.6952 N   0  0  0  0  0  0  0  0  0  0  0  0
   11.8157  -16.9282   -9.1927 C   0  0  0  0  0  0  0  0  0  0  0  0
   12.9514  -17.6814   -9.8194 C   0  0  0  0  0  0  0  0  0  0  0  0
   14.0706  -18.4177   -9.1447 C   0  0  0  0  0  0  0  0  0  0  0  0
   14.3305  -18.5827   -7.6767 S   0  0  0  0  0  0  0  0  0  0  0  0
   12.8630  -17.6163   -8.3684 C   0  0  0  0  0  0  0  0  0  0  0  0
   17.9277  -20.9473   -5.0688 H   0  0  0  0  0  0  0  0  0  0  0  0
   15.8526  -19.5729   -4.3239 H   0  0  0  0  0  0  0  0  0  0  0  0
   17.3088  -20.5510   -7.8092 H   0  0  0  0  0  0  0  0  0  0  0  0
   14.9983  -19.0051   -5.7072 H   0  0  0  0  0  0  0  0  0  0  0  0
   17.3052  -20.5567   -7.8390 H   0  0  0  0  0  0  0  0  0  0  0  0
   15.2574  -19.2254  -10.1472 H   0  0  0  0  0  0  0  0  0  0  0  0
   19.1738  -21.8430  -12.2559 H   0  0  0  0  0  0  0  0  0  0  0  0
   20.1046  -22.4482  -11.2035 H   0  0  0  0  0  0  0  0  0  0  0  0
   18.2941  -21.2263   -9.1553 H   0  0  0  0  0  0  0  0  0  0  0  0
   21.2930  -23.2164   -9.4685 H   0  0  0  0  0  0  0  0  0  0  0  0
   19.4992  -21.9934   -6.2979 H   0  0  0  0  0  0  0  0  0  0  0  0
   20.9976  -23.0010   -7.4113 H   0  0  0  0  0  0  0  0  0  0  0  0
   18.5380  -21.3716   -7.9230 H   0  0  0  0  0  0  0  0  0  0  0  0
   18.8671  -21.6525  -13.4058 H   0  0  0  0  0  0  0  0  0  0  0  0
   18.3149  -21.2935  -14.0272 H   0  0  0  0  0  0  0  0  0  0  0  0
   17.3389  -20.6501  -14.3209 H   0  0  0  0  0  0  0  0  0  0  0  0
   15.9028  -19.6995  -14.3934 H   0  0  0  0  0  0  0  0  0  0  0  0
   13.7521  -18.2627  -13.2932 H   0  0  0  0  0  0  0  0  0  0  0  0
   15.0307  -19.1400  -16.0581 H   0  0  0  0  0  0  0  0  0  0  0  0
   14.4849  -18.7554  -14.0447 H   0  0  0  0  0  0  0  0  0  0  0  0
   16.6347  -20.1980  -15.5491 H   0  0  0  0  0  0  0  0  0  0  0  0
   16.2553  -19.9431  -15.3085 H   0  0  0  0  0  0  0  0  0  0  0  0
   17.5857  -20.8285  -15.6822 H   0  0  0  0  0  0  0  0  0  0  0  0
   18.9023  -21.6994  -15.5627 H   0  0  0  0  0  0  0  0  0  0  0  0
   19.8831  -22.3375  -14.4963 H   0  0  0  0  0  0  0  0  0  0  0  0
   20.5754  -22.7826  -13.2606 H   0  0  0  0  0  0  0  0  0  0  0  0
   20.6769  -22.8371  -12.0963 H   0  0  0  0  0  0  0  0  0  0  0  0
   20.7665  -22.8635   -9.0920 H   0  0  0  0  0  0  0  0  0  0  0  0
   21.7556  -23.5175   -9.3820 H   0  0  0  0  0  0  0  0  0  0  0  0
   21.1772  -23.1746  -12.2540 H   0  0  0  0  0  0  0  0  0  0  0  0
   21.7224  -23.5224  -14.0599 H   0  0  0  0  0  0  0  0  0  0  0  0
   23.2173  -24.5319  -13.2248 H   0  0  0  0  0  0  0  0  0  0  0  0
   23.0623  -24.4283  -13.5394 H   0  0  0  0  0  0  0  0  0  0  0  0
   23.1589  -24.4687   -8.3118 H   0  0  0  0  0  0  0  0  0  0  0  0
   24.0358  -25.0437  -10.0005 H   0  0  0  0  0  0  0  0  0  0  0  0
   21.8069  -23.5807   -8.8322 H   0  0  0  0  0  0  0  0  0  0  0  0
   25.0223  -24.2765  -11.8669 H   0  0  0  0  0  0  0  0  0  0  0  0
   24.7076  -27.0674  -12.2694 H   0  0  0  0  0  0  0  0  0  0  0  0
   22.1914  -26.9516  -11.6328 H   0  0  0  0  0  0  0  0  0  0  0  0
   18.6479  -21.4582   -8.9255 H   0  0  0  0  0  0  0  0  0  0  0  0
   19.3616  -21.9756  -12.9949 H   0  0  0  0  0  0  0  0  0  0  0  0
   19.1614  -21.8306  -11.8657 H   0  0  0  0  0  0  0  0  0  0  0  0
   17.0109  -20.3892  -10.3387 H   0  0  0  0  0  0  0  0  0  0  0  0
   17.6679  -20.8131   -9.5505 H   0  0  0  0  0  0  0  0  0  0  0  0
   19.2676  -21.9002  -11.5761 H   0  0  0  0  0  0  0  0  0  0  0  0
   18.5335  -21.3872   -8.7354 H   0  0  0  0  0  0  0  0  0  0  0  0
   20.2048  -22.5040  -10.8408 H   0  0  0  0  0  0  0  0  0  0  0  0
   20.3236  -22.5544   -7.6553 H   0  0  0  0  0  0  0  0  0  0  0  0
   21.4057  -23.2882   -9.2037 H   0  0  0  0  0  0  0  0  0  0  0  0
   14.1102  -18.4433   -9.0241 H   0  0  0  0  0  0  0  0  0  0  0  0
   14.7966  -18.8787   -5.0756 H   0  0  0  0  0  0  0  0  0  0  0  0
   11.8669  -16.9395   -4.2825 H   0  0  0  0  0  0  0  0  0  0  0  0
   13.4734  -18.0003   -4.1703 H   0  0  0  0  0  0  0  0  0  0  0  0
   10.4577  -16.0189   -6.5439 H   0  0  0  0  0  0  0  0  0  0  0  0
   11.1834  -16.4904   -4.8206 H   0  0  0  0  0  0  0  0  0  0  0  0
   11.2513  -16.5614  -10.5333 H   0  0  0  0  0  0  0  0  0  0  0  0
   12.1861  -17.1811  -11.0086 H   0  0  0  0  0  0  0  0  0  0  0  0
   13.6228  -18.1307  -11.0833 H   0  0  0  0  0  0  0  0  0  0  0  0
   14.5136  -18.7168  -10.5463 H   0  0  0  0  0  0  0  0  0  0  0  0
   15.2894  -19.2244   -9.4819 H   0  0  0  0  0  0  0  0  0  0  0  0
   13.9597  -18.3441   -9.0877 H   0  0  0  0  0  0  0  0  0  0  0  0
  1  2  2  3
  2  3  1  0
  3  4  1  0
  4  5  1  0
  5  6  1  0
  6  7  1  0
  7  8  1  0
  8  9  1  0
  9 10  1  0
 10 11  1  0
  8 12  1  0
 12 13  1  0
 13 14  1  0
 14 15  1  0
 15 16  1  0
 15 17  1  0
 17 18  1  0
 18 19  1  0
 19 20  1  0
 20 21  1  0
 21 22  1  0
 22 23  1  0
 23 24  1  0
 23 25  1  0
 23 26  1  0
 26 27  2  3
 21 28  1  0
 18 29  1  0
 29 30  1  0
 30 31  1  0
 31 32  1  0
 32 33  1  0
 30 34  1  0
  3 35  1  0
 35 36  1  0
 36 37  1  0
 37 38  1  0
 38 39  1  0
 39 40  1  0
 40 41  1  0
 41 42  1  0
 42 43  1  0
 40 44  1  0
  7  5  1  0
 34 14  1  0
 44 35  1  0
 34  6  1  0
 43 36  1  0
 28  7  1  0
 44 39  1  0
 34 15  1  0
 28 20  1  0
  1 45  1  0
  1 46  1  0
  2 47  1  0
  3 48  1  0
  5 49  1  0
  6 50  1  0
  8 51  1  0
  9 52  1  0
  9 53  1  0
 10 54  1  0
 11 55  1  0
 11 56  1  0
 11 57  1  0
 12 58  1  0
 12 59  1  0
 13 60  1  0
 13 61  1  0
 14 62  1  0
 16 63  1  0
 16 64  1  0
 16 65  1  0
 17 66  1  0
 17 67  1  0
 18 68  1  0
 19 69  1  0
 19 70  1  0
 20 71  1  0
 21 72  1  0
 22 73  1  0
 22 74  1  0
 24 75  1  0
 24 76  1  0
 24 77  1  0
 25 78  1  0
 25 79  1  0
 25 80  1  0
 26 81  1  0
 27 82  1  0
 27 83  1  0
 28 84  1  0
 29 85  1  0
 29 86  1  0
 30 87  1  0
 31 88  1  0
 31 89  1  0
 32 90  1  0
 32 91  1  0
 33 92  1  0
 33 93  1  0
 35 94  1  0
 36 95  1  0
 37 96  1  0
 37 97  1  0
 38 98  1  0
 38 99  1  0
 40100  1  0
 41101  1  0
 41102  1  0
 42103  1  0
 42104  1  0
 44105  1  0
M  END
