
     RDKit          2D

113120  0  0  0  0  0  0  0  0999 V2000
   -2.5192   21.7106   14.8453 C   0  0  0  0  0  0  0  0  0  0  0  0
   -2.5305   21.4050   13.3768 C   0  0  0  0  0  0  0  0  0  0  0  0
   -2.5420   21.0993   11.9084 C   0  0  0  0  0  0  0  0  0  0  0  0
   -2.5534   20.7936   10.4399 C   0  0  0  0  0  0  0  0  0  0  0  0
   -1.8951   22.0331    9.9106 C   0  0  0  0  0  0  0  0  0  0  0  0
   -2.3348   20.9552    8.9647 C   0  0  0  0  0  0  0  0  0  0  0  0
   -1.6765   22.1947    8.4354 C   0  0  0  0  0  0  0  0  0  0  0  0
   -1.6880   21.8890    6.9669 C   0  0  0  0  0  0  0  0  0  0  0  0
   -1.0143   23.5405    8.4162 C   0  0  0  0  0  0  0  0  0  0  0  0
   -0.5920   24.1500    7.1122 C   0  0  0  0  0  0  0  0  0  0  0  0
    0.0702   25.4957    7.0930 N   0  0  0  0  0  0  0  0  0  0  0  0
    0.4925   26.1052    5.7890 C   0  0  0  0  0  0  0  0  0  0  0  0
    1.0134   27.3073    6.5196 C   0  0  0  0  0  0  0  0  0  0  0  0
    1.5233   28.1144    5.3627 C   0  0  0  0  0  0  0  0  0  0  0  0
    1.0842   27.0362    4.4169 C   0  0  0  0  0  0  0  0  0  0  0  0
    1.3061   27.1962    2.9420 C   0  0  0  0  0  0  0  0  0  0  0  0
    1.9672   28.4343    2.4130 C   0  0  0  0  0  0  0  0  0  0  0  0
    2.4064   29.5126    3.3589 C   0  0  0  0  0  0  0  0  0  0  0  0
    2.1844   29.3526    4.8337 C   0  0  0  0  0  0  0  0  0  0  0  0
    1.6486   28.6446    6.7603 C   0  0  0  0  0  0  0  0  0  0  0  0
    1.5403   28.7193    8.2544 C   0  0  0  0  0  0  0  0  0  0  0  0
    2.3215   29.9561    6.4820 C   0  0  0  0  0  0  0  0  0  0  0  0
    2.3145   29.6482    5.0140 C   0  0  0  0  0  0  0  0  0  0  0  0
    2.6449   30.0373    3.6035 C   0  0  0  0  0  0  0  0  0  0  0  0
    2.1250   28.8347    2.8730 C   0  0  0  0  0  0  0  0  0  0  0  0
    2.2350   28.7592    1.3790 N   0  0  0  0  0  0  0  0  0  0  0  0
    1.7152   27.5567    0.6485 C   0  0  0  0  0  0  0  0  0  0  0  0
    1.1953   26.3542   -0.0821 C   0  0  0  0  0  0  0  0  0  0  0  0
    0.8529   25.4319   -1.2143 C   0  0  0  0  0  0  0  0  0  0  0  0
    1.5257   26.7433   -1.4926 C   0  0  0  0  0  0  0  0  0  0  0  0
    1.6357   26.6678   -2.9867 C   0  0  0  0  0  0  0  0  0  0  0  0
    1.7457   26.5923   -4.4807 C   0  0  0  0  0  0  0  0  0  0  0  0
    3.1559   30.8440    2.4467 O   0  0  0  0  0  0  0  0  0  0  0  0
    3.7905   32.1817    2.6874 C   0  0  0  0  0  0  0  0  0  0  0  0
    2.9874   30.9597    4.7357 C   0  0  0  0  0  0  0  0  0  0  0  0
    3.6354   32.1467    4.0870 C   0  0  0  0  0  0  0  0  0  0  0  0
    2.9943   31.2675    6.2039 C   0  0  0  0  0  0  0  0  0  0  0  0
    3.1752   31.9044    7.5498 C   0  0  0  0  0  0  0  0  0  0  0  0
    2.5683   30.8459    8.4224 C   0  0  0  0  0  0  0  0  0  0  0  0
    3.6460   32.6139    6.3150 C   0  0  0  0  0  0  0  0  0  0  0  0
    4.2011   33.8649    6.9291 C   0  0  0  0  0  0  0  0  0  0  0  0
   -0.0285   24.9032    5.0585 C   0  0  0  0  0  0  0  0  0  0  0  0
   -0.5495   23.7012    4.3279 C   0  0  0  0  0  0  0  0  0  0  0  0
   -0.4492   24.2929    6.3625 C   0  0  0  0  0  0  0  0  0  0  0  0
    0.3921   25.5135    3.7544 C   0  0  0  0  0  0  0  0  0  0  0  0
   -2.5079   22.0162   16.3138 H   0  0  0  0  0  0  0  0  0  0  0  0
   -3.6116   20.7059   15.0627 H   0  0  0  0  0  0  0  0  0  0  0  0
   -1.4268   22.7153   14.6278 H   0  0  0  0  0  0  0  0  0  0  0  0
   -1.4400   22.4115   13.1588 H   0  0  0  0  0  0  0  0  0  0  0  0
   -3.6211   20.3984   13.5949 H   0  0  0  0  0  0  0  0  0  0  0  0
   -1.6512   22.2794   11.6557 H   0  0  0  0  0  0  0  0  0  0  0  0
   -3.4327   19.9191   12.1610 H   0  0  0  0  0  0  0  0  0  0  0  0
   -3.2157   19.4477   10.4591 H   0  0  0  0  0  0  0  0  0  0  0  0
   -1.4553   23.1110   10.8565 H   0  0  0  0  0  0  0  0  0  0  0  0
   -2.7746   19.8773    8.0188 H   0  0  0  0  0  0  0  0  0  0  0  0
   -1.6994   21.5832    5.4985 H   0  0  0  0  0  0  0  0  0  0  0  0
   -2.3726   20.5834    7.2442 H   0  0  0  0  0  0  0  0  0  0  0  0
   -1.2431   22.7148    6.6690 H   0  0  0  0  0  0  0  0  0  0  0  0
   -0.7742   24.2767    9.7008 H   0  0  0  0  0  0  0  0  0  0  0  0
   -0.7592   23.6885    6.4841 H   0  0  0  0  0  0  0  0  0  0  0  0
    0.2322   26.0889    8.4612 H   0  0  0  0  0  0  0  0  0  0  0  0
    0.8480   26.5637    4.4058 H   0  0  0  0  0  0  0  0  0  0  0  0
    0.6845   26.9175    7.9303 H   0  0  0  0  0  0  0  0  0  0  0  0
    0.5942   25.8796    3.5971 H   0  0  0  0  0  0  0  0  0  0  0  0
    0.5449   26.1557    5.5049 H   0  0  0  0  0  0  0  0  0  0  0  0
    1.2975   26.8891    1.4738 H   0  0  0  0  0  0  0  0  0  0  0  0
    0.6602   25.8522    2.7788 H   0  0  0  0  0  0  0  0  0  0  0  0
    2.5456   29.4166    1.4379 H   0  0  0  0  0  0  0  0  0  0  0  0
    1.7290   27.6972    1.1285 H   0  0  0  0  0  0  0  0  0  0  0  0
    2.9934   30.8019    3.8519 H   0  0  0  0  0  0  0  0  0  0  0  0
    2.7655   29.9693    1.9759 H   0  0  0  0  0  0  0  0  0  0  0  0
    2.2750   29.8173    6.2570 H   0  0  0  0  0  0  0  0  0  0  0  0
    2.8550   30.6394    4.4536 H   0  0  0  0  0  0  0  0  0  0  0  0
    1.3519   28.6296    9.7398 H   0  0  0  0  0  0  0  0  0  0  0  0
    2.1585   30.0423    8.5975 H   0  0  0  0  0  0  0  0  0  0  0  0
    0.8679   27.3937    8.4556 H   0  0  0  0  0  0  0  0  0  0  0  0
    2.2463   30.1018    7.9731 H   0  0  0  0  0  0  0  0  0  0  0  0
    1.7227   28.3519    4.5455 H   0  0  0  0  0  0  0  0  0  0  0  0
    1.4710   27.6262    3.4743 H   0  0  0  0  0  0  0  0  0  0  0  0
    1.5257   26.8449    1.9551 H   0  0  0  0  0  0  0  0  0  0  0  0
    1.9667   28.4099   -0.5595 H   0  0  0  0  0  0  0  0  0  0  0  0
    0.6844   25.5475    1.0746 H   0  0  0  0  0  0  0  0  0  0  0  0
    0.2230   24.3047   -0.4508 H   0  0  0  0  0  0  0  0  0  0  0  0
    0.6495   24.7540   -2.5369 H   0  0  0  0  0  0  0  0  0  0  0  0
    2.1828   28.0904   -1.4335 H   0  0  0  0  0  0  0  0  0  0  0  0
    0.7283   27.8555   -3.1135 H   0  0  0  0  0  0  0  0  0  0  0  0
    2.5498   25.4798   -3.0429 H   0  0  0  0  0  0  0  0  0  0  0  0
    1.8557   26.5169   -5.9748 H   0  0  0  0  0  0  0  0  0  0  0  0
    3.1439   26.0649   -4.3511 H   0  0  0  0  0  0  0  0  0  0  0  0
    0.3475   27.1198   -4.6103 H   0  0  0  0  0  0  0  0  0  0  0  0
    4.4476   33.5287    2.7465 H   0  0  0  0  0  0  0  0  0  0  0  0
    4.0141   32.3409    1.2127 H   0  0  0  0  0  0  0  0  0  0  0  0
    3.7271   32.3509    4.1764 H   0  0  0  0  0  0  0  0  0  0  0  0
    4.3008   33.4025    3.6072 H   0  0  0  0  0  0  0  0  0  0  0  0
    3.7801   32.1419    2.5941 H   0  0  0  0  0  0  0  0  0  0  0  0
    3.8939   32.9235    5.3440 H   0  0  0  0  0  0  0  0  0  0  0  0
    3.4971   32.7918    8.7155 H   0  0  0  0  0  0  0  0  0  0  0  0
    1.9614   29.7874    9.2949 H   0  0  0  0  0  0  0  0  0  0  0  0
    2.9347   31.8000    9.5203 H   0  0  0  0  0  0  0  0  0  0  0  0
    2.1355   29.7831    7.4563 H   0  0  0  0  0  0  0  0  0  0  0  0
    3.9967   33.0479    4.9226 H   0  0  0  0  0  0  0  0  0  0  0  0
    4.7563   35.1158    7.5432 H   0  0  0  0  0  0  0  0  0  0  0  0
    4.1306   34.5502    5.5968 H   0  0  0  0  0  0  0  0  0  0  0  0
    4.3387   33.3370    8.3264 H   0  0  0  0  0  0  0  0  0  0  0  0
   -1.0705   22.4991    3.5973 H   0  0  0  0  0  0  0  0  0  0  0  0
   -0.8006   22.6972    5.4137 H   0  0  0  0  0  0  0  0  0  0  0  0
   -0.4851   24.2842    2.9473 H   0  0  0  0  0  0  0  0  0  0  0  0
   -1.0637   23.1890    7.1710 H   0  0  0  0  0  0  0  0  0  0  0  0
   -0.9671   23.0894    5.6323 H   0  0  0  0  0  0  0  0  0  0  0  0
   -0.0484   25.3130    7.3867 H   0  0  0  0  0  0  0  0  0  0  0  0
    0.7465   25.9725    2.3710 H   0  0  0  0  0  0  0  0  0  0  0  0
   -0.0706   24.3934    2.8706 H   0  0  0  0  0  0  0  0  0  0  0  0
    1.0264   26.8558    3.9687 H   0  0  0  0  0  0  0  0  0  0  0  0
  1  2  1  0
  2  3  1  0
  3  4  1  0
  4  5  1  0
  5  6  1  0
  6  7  1  0
  7  8  1  6
  7  9  1  0
  9 10  2  3
 10 11  1  0
 11 12  1  0
 12 13  1  0
 13 14  1  0
 14 15  1  0
 15 16  1  0
 16 17  1  0
 17 18  1  0
 18 19  1  0
 14 20  1  0
 20 21  1  1
 20 22  1  0
 22 23  1  0
 23 24  1  0
 24 25  1  0
 25 26  2  3
 26 27  1  0
 27 28  1  0
 28 29  1  0
 29 30  1  0
 30 31  1  0
 31 32  1  0
 24 33  1  1
 33 34  1  0
 24 35  1  0
 35 36  1  1
 37 35  1  1
 37 38  1  0
 38 39  1  0
 38 40  1  0
 40 41  1  0
 12 42  1  0
 42 43  1  0
 42 44  1  0
 42 45  1  0
  6  4  1  0
 20 13  1  0
 37 22  1  0
  7  5  1  0
 19 14  1  0
 35 23  1  0
 40 37  1  0
 30 28  1  0
  1 46  1  0
  1 47  1  0
  1 48  1  0
  2 49  1  0
  2 50  1  0
  3 51  1  0
  3 52  1  0
  4 53  1  6
  5 54  1  1
  6 55  1  1
  8 56  1  0
  8 57  1  0
  8 58  1  0
  9 59  1  0
 10 60  1  0
 11 61  1  0
 12 62  1  1
 13 63  1  6
 15 64  1  0
 15 65  1  0
 16 66  1  0
 16 67  1  0
 17 68  1  0
 17 69  1  0
 18 70  1  0
 18 71  1  0
 19 72  1  0
 19 73  1  0
 21 74  1  0
 21 75  1  0
 21 76  1  0
 22 77  1  6
 23 78  1  1
 25 79  1  0
 27 80  1  0
 27 81  1  0
 28 82  1  1
 29 83  1  0
 29 84  1  0
 30 85  1  6
 31 86  1  0
 31 87  1  0
 32 88  1  0
 32 89  1  0
 32 90  1  0
 34 91  1  0
 34 92  1  0
 34 93  1  0
 36 94  1  0
 36 95  1  0
 36 96  1  0
 38 97  1  6
 39 98  1  0
 39 99  1  0
 39100  1  0
 40101  1  6
 41102  1  0
 41103  1  0
 41104  1  0
 43105  1  0
 43106  1  0
 43107  1  0
 44108  1  0
 44109  1  0
 44110  1  0
 45111  1  0
 45112  1  0
 45113  1  0
M  END
