
     RDKit          2D

 72 76  0  0  0  0  0  0  0  0999 V2000
    4.6159   14.7891   10.2457 C   0  0  0  0  0  0  0  0  0  0  0  0
    4.1806   16.0415   10.9471 C   0  0  0  0  0  0  0  0  0  0  0  0
    4.5169   16.2461   12.3945 C   0  0  0  0  0  0  0  0  0  0  0  0
    5.1448   14.9028   12.1686 C   0  0  0  0  0  0  0  0  0  0  0  0
    4.0815   17.4986   13.0958 C   0  0  0  0  0  0  0  0  0  0  0  0
    4.7871   16.8017   14.2212 N   0  0  0  0  0  0  0  0  0  0  0  0
    3.3098   18.5463   12.3498 C   0  0  0  0  0  0  0  0  0  0  0  0
    2.6129   19.8744   12.3240 O   0  0  0  0  0  0  0  0  0  0  0  0
    2.2766   19.6697   10.8765 C   0  0  0  0  0  0  0  0  0  0  0  0
    2.9735   18.3417   10.9023 C   0  0  0  0  0  0  0  0  0  0  0  0
    3.4088   17.0893   10.2010 C   0  0  0  0  0  0  0  0  0  0  0  0
    2.7033   17.7862    9.0756 C   0  0  0  0  0  0  0  0  0  0  0  0
    1.9976   18.4831    7.9502 C   0  0  0  0  0  0  0  0  0  0  0  0
    2.3049   17.3288    7.0429 C   0  0  0  0  0  0  0  0  0  0  0  0
    1.5993   18.0257    5.9175 C   0  0  0  0  0  0  0  0  0  0  0  0
    1.2921   19.1799    6.8249 C   0  0  0  0  0  0  0  0  0  0  0  0
    0.6292   19.7309    5.5972 Br  0  0  0  0  0  0  0  0  0  0  0  0
    0.9848   20.3341    7.7322 C   0  0  0  0  0  0  0  0  0  0  0  0
    0.6776   21.4883    8.6396 C   0  0  0  0  0  0  0  0  0  0  0  0
    0.2813   21.0321    6.6062 C   0  0  0  0  0  0  0  0  0  0  0  0
   -0.4222   21.7301    5.4802 C   0  0  0  0  0  0  0  0  0  0  0  0
   -1.1257   22.4280    4.3541 C   0  0  0  0  0  0  0  0  0  0  0  0
   -1.2116   21.7773    3.0054 C   0  0  0  0  0  0  0  0  0  0  0  0
   -1.8291   23.1259    3.2281 C   0  0  0  0  0  0  0  0  0  0  0  0
   -2.5326   23.8239    2.1021 C   0  0  0  0  0  0  0  0  0  0  0  0
   -1.7432   23.7767    4.5769 C   0  0  0  0  0  0  0  0  0  0  0  0
   -2.4795   25.0534    4.2974 O   0  0  0  0  0  0  0  0  0  0  0  0
   -2.6596   26.0690    5.3865 C   0  0  0  0  0  0  0  0  0  0  0  0
   -2.8397   27.0845    6.4757 C   0  0  0  0  0  0  0  0  0  0  0  0
   -3.0198   28.1001    7.5648 C   0  0  0  0  0  0  0  0  0  0  0  0
    4.2796   14.5845    8.7984 H   0  0  0  0  0  0  0  0  0  0  0  0
    5.3876   13.7413   10.9918 H   0  0  0  0  0  0  0  0  0  0  0  0
    5.0159   15.9054   13.4486 H   0  0  0  0  0  0  0  0  0  0  0  0
    5.7727   13.5593   11.9427 H   0  0  0  0  0  0  0  0  0  0  0  0
    5.6498   14.6995   13.5664 H   0  0  0  0  0  0  0  0  0  0  0  0
    4.9287   14.6706   10.9957 H   0  0  0  0  0  0  0  0  0  0  0  0
    3.9840   18.3934   14.2958 H   0  0  0  0  0  0  0  0  0  0  0  0
    4.8648   17.4482   15.5726 H   0  0  0  0  0  0  0  0  0  0  0  0
    5.3693   15.7401   14.3240 H   0  0  0  0  0  0  0  0  0  0  0  0
    3.3605   19.2336   13.6821 H   0  0  0  0  0  0  0  0  0  0  0  0
    1.9713   19.6397    9.8269 H   0  0  0  0  0  0  0  0  0  0  0  0
    1.5797   20.9978   10.8508 H   0  0  0  0  0  0  0  0  0  0  0  0
    2.5558   18.5661    9.9170 H   0  0  0  0  0  0  0  0  0  0  0  0
    3.5992   16.0789    9.1089 H   0  0  0  0  0  0  0  0  0  0  0  0
    3.1094   16.5634    8.3075 H   0  0  0  0  0  0  0  0  0  0  0  0
    2.4462   18.4668    9.4012 H   0  0  0  0  0  0  0  0  0  0  0  0
    1.6904   19.6373    8.8576 H   0  0  0  0  0  0  0  0  0  0  0  0
    2.6122   16.1746    6.1355 H   0  0  0  0  0  0  0  0  0  0  0  0
    3.0427   16.4964    8.0493 H   0  0  0  0  0  0  0  0  0  0  0  0
    0.8938   18.7226    4.7921 H   0  0  0  0  0  0  0  0  0  0  0  0
    1.9066   16.8715    5.0101 H   0  0  0  0  0  0  0  0  0  0  0  0
    1.6883   19.6362    8.8583 H   0  0  0  0  0  0  0  0  0  0  0  0
    0.3703   22.6425    9.5470 H   0  0  0  0  0  0  0  0  0  0  0  0
   -0.5024   22.0122    7.8759 H   0  0  0  0  0  0  0  0  0  0  0  0
    1.8286   21.1023    9.5205 H   0  0  0  0  0  0  0  0  0  0  0  0
    0.4647   22.4311    7.1152 H   0  0  0  0  0  0  0  0  0  0  0  0
   -0.0736   19.8032    5.8226 H   0  0  0  0  0  0  0  0  0  0  0  0
   -0.7310   22.8835    6.3881 H   0  0  0  0  0  0  0  0  0  0  0  0
   -0.1133   20.5766    4.5723 H   0  0  0  0  0  0  0  0  0  0  0  0
   -0.4753   20.5006    3.2847 H   0  0  0  0  0  0  0  0  0  0  0  0
   -1.5531   21.5699    1.5596 H   0  0  0  0  0  0  0  0  0  0  0  0
   -3.2361   24.5218    0.9760 H   0  0  0  0  0  0  0  0  0  0  0  0
   -2.8143   24.9910    3.0014 H   0  0  0  0  0  0  0  0  0  0  0  0
   -2.2510   22.6569    1.2028 H   0  0  0  0  0  0  0  0  0  0  0  0
   -1.4017   23.9841    6.0226 H   0  0  0  0  0  0  0  0  0  0  0  0
   -3.4000   26.9598    4.4335 H   0  0  0  0  0  0  0  0  0  0  0  0
   -1.9192   25.1782    6.3396 H   0  0  0  0  0  0  0  0  0  0  0  0
   -3.5742   27.9783    5.5209 H   0  0  0  0  0  0  0  0  0  0  0  0
   -2.1052   26.1908    7.4305 H   0  0  0  0  0  0  0  0  0  0  0  0
   -3.1999   29.1157    8.6539 H   0  0  0  0  0  0  0  0  0  0  0  0
   -2.2794   27.2093    8.5178 H   0  0  0  0  0  0  0  0  0  0  0  0
   -3.7602   28.9909    6.6118 H   0  0  0  0  0  0  0  0  0  0  0  0
  1  2  2  3
  2  3  1  0
  3  4  1  0
  3  5  1  0
  5  6  1  0
  5  7  1  0
  7  8  1  0
  8  9  1  0
  9 10  1  0
 10 11  1  0
 11 12  1  0
 12 13  1  0
 13 14  1  0
 14 15  1  0
 15 16  1  0
 16 17  1  0
 16 18  1  0
 18 19  1  0
 18 20  1  0
 20 21  1  0
 21 22  1  0
 22 23  1  0
 23 24  1  0
 24 25  1  0
 24 26  1  0
 26 27  1  0
 27 28  1  0
 28 29  1  0
 29 30  1  0
 11  2  1  0
 16 13  1  0
 24 22  1  0
 10  7  1  0
 26 22  1  0
  1 31  1  0
  1 32  1  0
  3 33  1  0
  4 34  1  0
  4 35  1  0
  4 36  1  0
  5 37  1  0
  6 38  1  0
  6 39  1  0
  7 40  1  0
  9 41  1  0
  9 42  1  0
 10 43  1  0
 11 44  1  0
 12 45  1  0
 12 46  1  0
 13 47  1  0
 14 48  1  0
 14 49  1  0
 15 50  1  0
 15 51  1  0
 18 52  1  0
 19 53  1  0
 19 54  1  0
 19 55  1  0
 20 56  1  0
 20 57  1  0
 21 58  1  0
 21 59  1  0
 23 60  1  0
 23 61  1  0
 25 62  1  0
 25 63  1  0
 25 64  1  0
 26 65  1  0
 28 66  1  0
 28 67  1  0
 29 68  1  0
 29 69  1  0
 30 70  1  0
 30 71  1  0
 30 72  1  0
M  END
