
     RDKit          2D

110117  0  0  0  0  0  0  0  0999 V2000
   -0.3299   26.4510    8.3733 C   0  0  0  0  0  0  0  0  0  0  0  0
    0.5278   26.6643    7.1613 C   0  0  0  0  0  0  0  0  0  0  0  0
    1.7454   25.8152    6.9453 C   0  0  0  0  0  0  0  0  0  0  0  0
    2.7912   24.7655    7.1784 C   0  0  0  0  0  0  0  0  0  0  0  0
    3.9087   24.5885    6.1936 C   0  0  0  0  0  0  0  0  0  0  0  0
    3.9804   25.4612    4.9757 C   0  0  0  0  0  0  0  0  0  0  0  0
    2.9346   26.5109    4.7426 C   0  0  0  0  0  0  0  0  0  0  0  0
    1.8170   26.6879    5.7275 C   0  0  0  0  0  0  0  0  0  0  0  0
    1.4572   27.7503    4.7315 C   0  0  0  0  0  0  0  0  0  0  0  0
    2.6589   27.3873    3.9102 C   0  0  0  0  0  0  0  0  0  0  0  0
    2.2990   28.4496    2.9143 C   0  0  0  0  0  0  0  0  0  0  0  0
    1.9391   29.5119    1.9183 C   0  0  0  0  0  0  0  0  0  0  0  0
    1.5793   30.5742    0.9223 C   0  0  0  0  0  0  0  0  0  0  0  0
    3.3176   29.4297    1.3325 C   0  0  0  0  0  0  0  0  0  0  0  0
    3.5314   28.3818    2.3843 C   0  0  0  0  0  0  0  0  0  0  0  0
    3.7451   27.3339    3.4361 C   0  0  0  0  0  0  0  0  0  0  0  0
    4.7407   29.1284    0.9667 C   0  0  0  0  0  0  0  0  0  0  0  0
    5.1182   30.0073   -0.1888 C   0  0  0  0  0  0  0  0  0  0  0  0
    3.9285   30.8517   -0.5370 C   0  0  0  0  0  0  0  0  0  0  0  0
    2.8156   30.4948    0.4032 C   0  0  0  0  0  0  0  0  0  0  0  0
    1.0973   28.8126    3.7355 C   0  0  0  0  0  0  0  0  0  0  0  0
   -0.1043   29.1755    4.5567 C   0  0  0  0  0  0  0  0  0  0  0  0
   -1.3059   29.5384    5.3780 N   0  0  0  0  0  0  0  0  0  0  0  0
   -2.2192   30.6387    4.9252 C   0  0  0  0  0  0  0  0  0  0  0  0
   -3.2441   30.2012    5.9294 C   0  0  0  0  0  0  0  0  0  0  0  0
   -4.2689   29.7637    6.9335 C   0  0  0  0  0  0  0  0  0  0  0  0
   -3.6514   28.3972    6.9684 C   0  0  0  0  0  0  0  0  0  0  0  0
   -4.6762   27.9598    7.9726 C   0  0  0  0  0  0  0  0  0  0  0  0
   -5.7010   27.5223    8.9767 C   0  0  0  0  0  0  0  0  0  0  0  0
   -6.7259   27.0848    9.9808 C   0  0  0  0  0  0  0  0  0  0  0  0
   -7.8557   26.9414   10.9570 C   0  0  0  0  0  0  0  0  0  0  0  0
   -7.9662   25.5210   11.5956 C   0  0  0  0  0  0  0  0  0  0  0  0
   -7.5798   24.0912   11.8329 C   0  0  0  0  0  0  0  0  0  0  0  0
   -6.4082   23.5004   11.1062 O   0  0  0  0  0  0  0  0  0  0  0  0
   -5.6229   24.3395   10.1422 C   0  0  0  0  0  0  0  0  0  0  0  0
   -6.0092   25.7692    9.9049 C   0  0  0  0  0  0  0  0  0  0  0  0
   -7.1809   26.3600   10.6316 C   0  0  0  0  0  0  0  0  0  0  0  0
   -5.2937   29.3264    7.9377 N   0  0  0  0  0  0  0  0  0  0  0  0
   -1.1944   31.0763    3.9211 C   0  0  0  0  0  0  0  0  0  0  0  0
   -0.5761   29.7101    3.9568 N   0  0  0  0  0  0  0  0  0  0  0  0
    0.4488   30.1475    2.9526 N   0  0  0  0  0  2  0  0  0  0  0  0
   -0.1695   31.5137    2.9169 C   0  0  0  0  0  0  0  0  0  0  0  0
   -0.5015   32.9465    2.6225 N   0  0  0  0  0  2  0  0  0  0  0  0
    0.6604   32.2898    1.9377 C   0  0  0  0  0  0  0  0  0  0  0  0
    1.1452   33.4319    1.0946 C   0  0  0  0  0  0  0  0  0  0  0  0
   -1.5474   27.3000    8.5892 H   0  0  0  0  0  0  0  0  0  0  0  0
    0.0300   25.3886    9.3693 H   0  0  0  0  0  0  0  0  0  0  0  0
    0.0246   27.7634    6.2732 H   0  0  0  0  0  0  0  0  0  0  0  0
    1.2509   25.2374    8.2382 H   0  0  0  0  0  0  0  0  0  0  0  0
    1.9335   24.5522    8.3904 H   0  0  0  0  0  0  0  0  0  0  0  0
    3.5393   23.6417    7.8324 H   0  0  0  0  0  0  0  0  0  0  0  0
    4.2686   23.5262    7.1896 H   0  0  0  0  0  0  0  0  0  0  0  0
    5.1512   24.0425    5.5547 H   0  0  0  0  0  0  0  0  0  0  0  0
    5.1979   24.6122    4.7597 H   0  0  0  0  0  0  0  0  0  0  0  0
    4.3311   26.1522    3.6914 H   0  0  0  0  0  0  0  0  0  0  0  0
    4.0617   26.3145    3.7727 H   0  0  0  0  0  0  0  0  0  0  0  0
    2.4515   27.6057    3.8383 H   0  0  0  0  0  0  0  0  0  0  0  0
    0.5661   27.3495    6.2246 H   0  0  0  0  0  0  0  0  0  0  0  0
    0.2556   28.1132    5.5527 H   0  0  0  0  0  0  0  0  0  0  0  0
    3.8954   26.8976    3.2166 H   0  0  0  0  0  0  0  0  0  0  0  0
    3.2988   26.2687    4.6780 H   0  0  0  0  0  0  0  0  0  0  0  0
    3.5519   27.8405    2.3585 H   0  0  0  0  0  0  0  0  0  0  0  0
    3.1895   29.6892    1.1089 H   0  0  0  0  0  0  0  0  0  0  0  0
    1.2194   31.6366   -0.0737 H   0  0  0  0  0  0  0  0  0  0  0  0
    2.6249   30.4405   -0.1448 H   0  0  0  0  0  0  0  0  0  0  0  0
    0.4118   30.9771    1.7738 H   0  0  0  0  0  0  0  0  0  0  0  0
    4.9564   28.0648    2.0396 H   0  0  0  0  0  0  0  0  0  0  0  0
    2.2155   28.3133    3.1012 H   0  0  0  0  0  0  0  0  0  0  0  0
    3.7857   26.3174    4.5383 H   0  0  0  0  0  0  0  0  0  0  0  0
    5.1693   27.0148    3.0894 H   0  0  0  0  0  0  0  0  0  0  0  0
    5.1171   27.2703    2.8330 H   0  0  0  0  0  0  0  0  0  0  0  0
    4.8310   28.1013    2.0561 H   0  0  0  0  0  0  0  0  0  0  0  0
    6.1464   28.6212    0.8367 H   0  0  0  0  0  0  0  0  0  0  0  0
    6.4450   29.3164   -0.0772 H   0  0  0  0  0  0  0  0  0  0  0  0
    5.7732   30.7417   -1.3209 H   0  0  0  0  0  0  0  0  0  0  0  0
    4.8321   31.4097   -1.5963 H   0  0  0  0  0  0  0  0  0  0  0  0
    2.9276   31.8128   -1.1066 H   0  0  0  0  0  0  0  0  0  0  0  0
    2.3605   31.5603   -0.5495 H   0  0  0  0  0  0  0  0  0  0  0  0
    1.4737   30.4842    1.0735 H   0  0  0  0  0  0  0  0  0  0  0  0
    1.0389   29.7555    2.5704 H   0  0  0  0  0  0  0  0  0  0  0  0
   -0.1263   30.1608    3.4261 H   0  0  0  0  0  0  0  0  0  0  0  0
    0.2181   28.0694    5.5172 H   0  0  0  0  0  0  0  0  0  0  0  0
   -1.5941   28.8009    6.6519 H   0  0  0  0  0  0  0  0  0  0  0  0
   -3.1326   31.7391    4.4725 H   0  0  0  0  0  0  0  0  0  0  0  0
   -2.2831   29.1822    6.4662 H   0  0  0  0  0  0  0  0  0  0  0  0
   -4.2050   31.2203    5.3925 H   0  0  0  0  0  0  0  0  0  0  0  0
   -4.8864   31.1303    6.8986 H   0  0  0  0  0  0  0  0  0  0  0  0
   -3.0339   27.0307    7.0033 H   0  0  0  0  0  0  0  0  0  0  0  0
   -2.6265   28.8347    5.9642 H   0  0  0  0  0  0  0  0  0  0  0  0
   -4.0587   26.5932    8.0074 H   0  0  0  0  0  0  0  0  0  0  0  0
   -4.9637   26.2190    8.8882 H   0  0  0  0  0  0  0  0  0  0  0  0
   -6.3180   28.8891    8.9425 H   0  0  0  0  0  0  0  0  0  0  0  0
   -7.2282   28.4918    9.8469 H   0  0  0  0  0  0  0  0  0  0  0  0
   -8.1219   28.3784   10.6190 H   0  0  0  0  0  0  0  0  0  0  0  0
   -9.0413   27.0985   11.8625 H   0  0  0  0  0  0  0  0  0  0  0  0
   -9.1379   26.1118   12.3223 H   0  0  0  0  0  0  0  0  0  0  0  0
   -7.6032   22.6985   12.3898 H   0  0  0  0  0  0  0  0  0  0  0  0
   -8.7597   24.1983   12.7531 H   0  0  0  0  0  0  0  0  0  0  0  0
   -4.5772   24.7288    9.1397 H   0  0  0  0  0  0  0  0  0  0  0  0
   -4.8734   23.0449   10.0313 H   0  0  0  0  0  0  0  0  0  0  0  0
   -5.1202   26.4599    8.9136 H   0  0  0  0  0  0  0  0  0  0  0  0
   -8.0235   27.5824   10.8462 H   0  0  0  0  0  0  0  0  0  0  0  0
   -7.0330   27.7080    9.9905 H   0  0  0  0  0  0  0  0  0  0  0  0
   -6.4550   29.9833    8.6231 H   0  0  0  0  0  0  0  0  0  0  0  0
   -1.8126   32.4424    3.8853 H   0  0  0  0  0  0  0  0  0  0  0  0
   -0.8636   28.4347    4.6922 H   0  0  0  0  0  0  0  0  0  0  0  0
    1.7278   31.3632    1.4359 H   0  0  0  0  0  0  0  0  0  0  0  0
    1.6301   34.5738    0.2516 H   0  0  0  0  0  0  0  0  0  0  0  0
    2.3283   32.8677    0.3652 H   0  0  0  0  0  0  0  0  0  0  0  0
    0.0469   34.2980    1.6362 H   0  0  0  0  0  0  0  0  0  0  0  0
  1  2  2  3
  2  3  1  0
  3  4  1  0
  4  5  1  0
  5  6  1  0
  6  7  1  0
  7  8  1  0
  8  9  1  0
  9 10  1  0
 10 11  1  0
 11 12  1  0
 12 13  1  0
 12 14  1  0
 14 15  1  0
 15 16  1  0
 14 17  1  0
 17 18  1  0
 18 19  1  0
 19 20  1  0
 11 21  1  0
 21 22  1  0
 22 23  1  0
 23 24  1  0
 24 25  1  0
 25 26  1  0
 26 27  1  0
 27 28  1  0
 28 29  1  0
 29 30  1  0
 30 31  1  0
 31 32  1  0
 32 33  1  0
 33 34  1  0
 34 35  1  0
 35 36  1  0
 36 37  1  0
 28 38  1  0
 24 39  1  0
 39 40  1  0
 40 41  1  0
 41 42  1  0
 42 43  1  0
 43 44  1  0
 44 45  1  0
  8  3  1  0
 21  9  1  0
 38 26  1  0
 42 39  1  0
 20 14  1  0
 36 30  1  0
 44 42  1  0
 37 32  1  0
  1 46  1  0
  1 47  1  0
  2 48  1  0
  3 49  1  0
  4 50  1  0
  4 51  1  0
  5 52  1  0
  5 53  1  0
  6 54  1  0
  6 55  1  0
  7 56  1  0
  7 57  1  0
  8 58  1  0
  9 59  1  0
 10 60  1  0
 10 61  1  0
 11 62  1  0
 12 63  1  0
 13 64  1  0
 13 65  1  0
 13 66  1  0
 15 67  1  0
 15 68  1  0
 16 69  1  0
 16 70  1  0
 16 71  1  0
 17 72  1  0
 17 73  1  0
 18 74  1  0
 18 75  1  0
 19 76  1  0
 19 77  1  0
 20 78  1  0
 20 79  1  0
 21 80  1  0
 22 81  1  0
 22 82  1  0
 23 83  1  0
 24 84  1  0
 25 85  1  0
 25 86  1  0
 26 87  1  0
 27 88  1  0
 27 89  1  0
 28 90  1  0
 29 91  1  0
 29 92  1  0
 30 93  1  0
 31 94  1  0
 31 95  1  0
 32 96  1  0
 33 97  1  0
 33 98  1  0
 35 99  1  0
 35100  1  0
 36101  1  0
 37102  1  0
 37103  1  0
 38104  1  0
 39105  1  0
 40106  1  0
 44107  1  0
 45108  1  0
 45109  1  0
 45110  1  0
M  RAD  2  41   2  43   2
M  END
