
     RDKit          2D

 23 24  0  0  0  0  0  0  0  0999 V2000
   16.1691  -23.5176   -8.1113 O   0  0  0  0  0  0  0  0  0  0  0  0
   15.6285  -22.6214   -7.0368 C   0  0  0  0  0  0  0  0  0  0  0  0
   15.3729  -21.1722   -7.3272 O   0  0  0  0  0  0  0  0  0  0  0  0
   15.3434  -23.1745   -5.6719 C   0  0  0  0  0  0  0  0  0  0  0  0
   14.8412  -21.9370   -4.9891 C   0  0  0  0  0  0  0  0  0  0  0  0
   14.3746  -20.5970   -4.5024 C   0  0  0  0  0  0  0  0  0  0  0  0
   13.8698  -20.2201   -3.1411 C   0  0  0  0  0  0  0  0  0  0  0  0
   13.7070  -21.0903   -1.9302 C   0  0  0  0  0  0  0  0  0  0  0  0
   14.0087  -22.5521   -1.7814 C   0  0  0  0  0  0  0  0  0  0  0  0
   14.5478  -23.5048   -2.8070 C   0  0  0  0  0  0  0  0  0  0  0  0
   14.9183  -23.2311   -4.2345 C   0  0  0  0  0  0  0  0  0  0  0  0
   15.6580  -20.6191   -8.6921 H   0  0  0  0  0  0  0  0  0  0  0  0
   15.7466  -24.6041   -5.8807 H   0  0  0  0  0  0  0  0  0  0  0  0
   15.0791  -21.2518   -6.3021 H   0  0  0  0  0  0  0  0  0  0  0  0
   14.4185  -19.4871   -5.5105 H   0  0  0  0  0  0  0  0  0  0  0  0
   13.4757  -18.7833   -2.9679 H   0  0  0  0  0  0  0  0  0  0  0  0
   13.2403  -19.7504   -1.4436 H   0  0  0  0  0  0  0  0  0  0  0  0
   13.2912  -21.1869   -0.4922 H   0  0  0  0  0  0  0  0  0  0  0  0
   13.5314  -22.3504   -0.3738 H   0  0  0  0  0  0  0  0  0  0  0  0
   14.0200  -23.7534   -0.8833 H   0  0  0  0  0  0  0  0  0  0  0  0
   14.4491  -24.5117   -1.6996 H   0  0  0  0  0  0  0  0  0  0  0  0
   15.0145  -24.8448   -3.2936 H   0  0  0  0  0  0  0  0  0  0  0  0
   15.2836  -24.6844   -4.3006 H   0  0  0  0  0  0  0  0  0  0  0  0
  1  2  2  0
  2  3  1  0
  2  4  1  0
  4  5  1  0
  5  6  1  0
  6  7  2  0
  7  8  1  0
  8  9  1  0
  9 10  1  0
 10 11  1  0
 11  4  1  0
 11  5  1  0
  3 12  1  0
  4 13  1  0
  5 14  1  0
  6 15  1  0
  7 16  1  0
  8 17  1  0
  8 18  1  0
  9 19  1  0
  9 20  1  0
 10 21  1  0
 10 22  1  0
 11 23  1  0
M  END
