
     RDKit          2D

 68 72  0  0  0  0  0  0  0  0999 V2000
   17.1531  -23.5833   -2.9915 C   0  0  0  0  0  0  0  0  0  0  0  0
   17.0581  -23.2832   -4.4581 C   0  0  0  0  0  0  0  0  0  0  0  0
   16.9631  -22.9830   -5.9246 C   0  0  0  0  0  0  0  0  0  0  0  0
   16.8681  -22.6829   -7.3913 O   0  0  0  0  0  0  0  0  0  0  0  0
   15.5765  -22.1905   -7.9739 C   0  0  0  0  0  0  0  0  0  0  0  0
   14.9399  -22.2551   -6.6173 C   0  0  0  0  0  0  0  0  0  0  0  0
   14.3032  -22.3197   -5.2607 C   0  0  0  0  0  0  0  0  0  0  0  0
   13.2622  -22.2146   -4.1858 C   0  0  0  0  0  0  0  0  0  0  0  0
   12.9184  -21.8537   -5.6005 O   0  0  0  0  0  0  0  0  0  0  0  0
   16.2133  -22.1258   -9.3306 C   0  0  0  0  0  0  0  0  0  0  0  0
   16.2254  -21.8574  -10.8063 N   0  0  0  0  0  0  0  0  0  0  0  0
   17.3605  -22.0094  -11.7752 C   0  0  0  0  0  0  0  0  0  0  0  0
   17.0515  -21.6568  -13.2000 N   0  0  0  0  0  0  0  0  0  0  0  0
   17.2548  -20.2524  -13.6861 C   0  0  0  0  0  0  0  0  0  0  0  0
   17.4580  -18.8479  -14.1721 C   0  0  0  0  0  0  0  0  0  0  0  0
   17.8975  -18.6962  -12.7460 C   0  0  0  0  0  0  0  0  0  0  0  0
   18.3631  -17.3622  -12.2425 O   0  0  0  0  0  0  0  0  0  0  0  0
   18.3892  -16.1798  -13.1652 C   0  0  0  0  0  0  0  0  0  0  0  0
   18.2526  -15.3204  -14.3870 N   0  0  0  0  0  0  0  0  0  0  0  0
   17.7300  -16.1782  -15.5010 C   0  0  0  0  0  0  0  0  0  0  0  0
   17.5437  -17.5677  -14.9678 N   0  0  0  0  0  0  0  0  0  0  0  0
   17.9511  -17.5687  -13.5242 C   0  0  0  0  0  0  0  0  0  0  0  0
   18.7636  -22.4674  -11.5076 N   0  0  0  0  0  0  0  0  0  0  0  0
   19.3781  -22.8865  -10.2050 C   0  0  0  0  0  0  0  0  0  0  0  0
   20.5132  -23.0385  -11.1739 N   0  0  0  0  0  0  0  0  0  0  0  0
   18.7415  -22.9511   -8.8484 N   0  0  0  0  0  0  0  0  0  0  0  0
   18.3048  -23.0872   -7.4198 C   0  0  0  0  0  0  0  0  0  0  0  0
   19.5824  -23.5732   -6.8021 C   0  0  0  0  0  0  0  0  0  0  0  0
   20.8599  -24.0592   -6.1843 C   0  0  0  0  0  0  0  0  0  0  0  0
   22.1375  -24.5452   -5.5665 C   0  0  0  0  0  0  0  0  0  0  0  0
   17.3330  -22.6126   -8.4592 C   0  0  0  0  0  0  0  0  0  0  0  0
   17.2480  -23.8835   -1.5249 H   0  0  0  0  0  0  0  0  0  0  0  0
   18.5898  -23.9778   -3.1653 H   0  0  0  0  0  0  0  0  0  0  0  0
   15.7163  -23.1888   -2.8177 H   0  0  0  0  0  0  0  0  0  0  0  0
   18.4945  -23.6787   -4.6320 H   0  0  0  0  0  0  0  0  0  0  0  0
   15.6439  -22.9272   -4.1066 H   0  0  0  0  0  0  0  0  0  0  0  0
   16.2119  -22.7928   -5.7377 H   0  0  0  0  0  0  0  0  0  0  0  0
   18.3998  -23.4141   -5.9189 H   0  0  0  0  0  0  0  0  0  0  0  0
   14.2851  -21.6981   -8.5565 H   0  0  0  0  0  0  0  0  0  0  0  0
   16.2378  -22.7253   -6.0305 H   0  0  0  0  0  0  0  0  0  0  0  0
   14.1746  -22.0341   -6.6500 H   0  0  0  0  0  0  0  0  0  0  0  0
   15.3542  -22.8019   -4.3053 H   0  0  0  0  0  0  0  0  0  0  0  0
   14.0643  -22.6665   -3.0015 H   0  0  0  0  0  0  0  0  0  0  0  0
   11.9428  -21.9527   -3.5220 H   0  0  0  0  0  0  0  0  0  0  0  0
   14.8101  -21.6679   -9.5982 H   0  0  0  0  0  0  0  0  0  0  0  0
   16.5394  -22.7086  -14.1388 H   0  0  0  0  0  0  0  0  0  0  0  0
   17.7541  -19.6814  -12.3919 H   0  0  0  0  0  0  0  0  0  0  0  0
   16.7555  -20.8233  -14.9802 H   0  0  0  0  0  0  0  0  0  0  0  0
   16.9479  -19.4874  -15.4295 H   0  0  0  0  0  0  0  0  0  0  0  0
   18.2134  -19.0506  -11.3232 H   0  0  0  0  0  0  0  0  0  0  0  0
   17.5910  -20.1550  -12.5789 H   0  0  0  0  0  0  0  0  0  0  0  0
   17.8106  -14.9126  -16.3022 H   0  0  0  0  0  0  0  0  0  0  0  0
   17.2243  -16.7714  -16.7826 H   0  0  0  0  0  0  0  0  0  0  0  0
   17.6828  -19.0155  -13.2324 H   0  0  0  0  0  0  0  0  0  0  0  0
   18.1734  -18.2101  -12.1865 H   0  0  0  0  0  0  0  0  0  0  0  0
   19.6722  -22.5122  -12.7002 H   0  0  0  0  0  0  0  0  0  0  0  0
   20.4979  -23.3733   -9.3336 H   0  0  0  0  0  0  0  0  0  0  0  0
   21.8509  -23.5168  -10.6927 H   0  0  0  0  0  0  0  0  0  0  0  0
   20.4859  -22.7590  -12.6474 H   0  0  0  0  0  0  0  0  0  0  0  0
   17.7269  -23.1736   -6.0383 H   0  0  0  0  0  0  0  0  0  0  0  0
   19.0738  -23.6862   -5.3954 H   0  0  0  0  0  0  0  0  0  0  0  0
   20.2515  -23.5191   -8.1434 H   0  0  0  0  0  0  0  0  0  0  0  0
   20.1906  -24.1140   -4.8430 H   0  0  0  0  0  0  0  0  0  0  0  0
   21.5293  -24.0044   -7.5256 H   0  0  0  0  0  0  0  0  0  0  0  0
   23.4151  -25.0312   -4.9487 H   0  0  0  0  0  0  0  0  0  0  0  0
   22.6743  -24.8669   -6.9298 H   0  0  0  0  0  0  0  0  0  0  0  0
   21.6007  -24.2235   -4.2033 H   0  0  0  0  0  0  0  0  0  0  0  0
   16.6264  -22.6506   -7.1366 H   0  0  0  0  0  0  0  0  0  0  0  0
  1  2  1  0
  2  3  1  0
  3  4  1  0
  4  5  1  0
  5  6  1  0
  6  7  1  0
  7  8  1  0
  8  9  1  0
  5 10  1  0
 10 11  1  0
 11 12  2  0
 12 13  1  0
 13 14  1  0
 14 15  1  0
 15 16  1  0
 16 17  1  0
 17 18  1  0
 18 19  2  0
 19 20  1  0
 20 21  1  0
 21 22  1  0
 12 23  1  0
 23 24  1  0
 24 25  1  0
 24 26  1  0
 26 27  1  0
 27 28  1  0
 28 29  1  0
 29 30  1  0
 27 31  1  0
  9  7  1  0
 31 10  1  0
 21 15  1  0
 31 26  1  0
 22 18  1  0
  1 32  1  0
  1 33  1  0
  1 34  1  0
  2 35  1  0
  2 36  1  0
  3 37  1  0
  3 38  1  0
  5 39  1  0
  6 40  1  0
  6 41  1  0
  7 42  1  0
  8 43  1  0
  8 44  1  0
 10 45  1  0
 13 46  1  0
 14 47  1  0
 14 48  1  0
 15 49  1  0
 16 50  1  0
 16 51  1  0
 20 52  1  0
 20 53  1  0
 22 54  1  0
 22 55  1  0
 23 56  1  0
 24 57  1  0
 25 58  1  0
 25 59  1  0
 27 60  1  0
 28 61  1  0
 28 62  1  0
 29 63  1  0
 29 64  1  0
 30 65  1  0
 30 66  1  0
 30 67  1  0
 31 68  1  0
M  END
