
     RDKit          2D

 80 86  0  0  0  0  0  0  0  0999 V2000
   -8.2006   31.4184    9.8879 C   0  0  0  0  0  0  0  0  0  0  0  0
   -8.2199   30.4556    8.7379 C   0  0  0  0  0  0  0  0  0  0  0  0
   -7.6991   29.0605    8.9189 C   0  0  0  0  0  0  0  0  0  0  0  0
   -7.1783   27.6655    9.0999 C   0  0  0  0  0  0  0  0  0  0  0  0
   -6.6577   26.2705    9.2810 C   0  0  0  0  0  0  0  0  0  0  0  0
   -7.5828   25.1764    9.7251 C   0  0  0  0  0  0  0  0  0  0  0  0
   -7.0622   23.7814    9.9062 C   0  0  0  0  0  0  0  0  0  0  0  0
   -6.3304   29.5185    8.5102 C   0  0  0  0  0  0  0  0  0  0  0  0
   -4.9618   29.9765    8.1016 C   0  0  0  0  0  0  0  0  0  0  0  0
   -5.2546   31.3414    8.6504 C   0  0  0  0  0  0  0  0  0  0  0  0
   -5.5474   32.7063    9.1993 C   0  0  0  0  0  0  0  0  0  0  0  0
   -5.8402   34.0712    9.7481 C   0  0  0  0  0  0  0  0  0  0  0  0
   -3.5931   30.4344    7.6929 C   0  0  0  0  0  0  0  0  0  0  0  0
   -3.1853   31.8241    7.3024 O   0  0  0  0  0  0  0  0  0  0  0  0
   -2.4577   29.4553    7.6453 C   0  0  0  0  0  0  0  0  0  0  0  0
   -2.5804   28.9829    6.2270 C   0  0  0  0  0  0  0  0  0  0  0  0
   -2.0994   28.1183    5.0996 C   0  0  0  0  0  0  0  0  0  0  0  0
   -1.6184   27.2537    3.9721 C   0  0  0  0  0  0  0  0  0  0  0  0
   -1.1374   26.3891    2.8447 C   0  0  0  0  0  0  0  0  0  0  0  0
   -0.8778   26.7751    4.3352 O   0  0  0  0  0  0  0  0  0  0  0  0
   -1.0209   27.5656    5.9835 C   0  0  0  0  0  0  0  0  0  0  0  0
   -0.5399   26.7010    4.8561 C   0  0  0  0  0  0  0  0  0  0  0  0
   -0.0589   25.8364    3.7287 Si  0  0  0  0  0  4  0  0  0  0  0  0
    1.0439   24.8342    3.5565 O   0  0  0  0  0  0  0  0  0  0  0  0
    0.9318   25.3739    4.6516 C   0  0  0  0  0  0  0  0  0  0  0  0
    1.8753   24.3498    4.0941 F   0  0  0  0  0  0  0  0  0  0  0  0
    0.9738   24.7792    3.2751 F   0  0  0  0  0  0  0  0  0  0  0  0
    1.8089   25.1154    5.8407 C   0  0  0  0  0  0  0  0  0  0  0  0
    2.0536   25.4901    7.2724 C   0  0  0  0  0  0  0  0  0  0  0  0
    1.5726   26.3547    8.3998 C   0  0  0  0  0  0  0  0  0  0  0  0
    0.5496   27.3790    8.7924 C   0  0  0  0  0  0  0  0  0  0  0  0
   -0.6248   28.1717    8.3000 N   0  0  0  0  0  0  0  0  0  0  0  0
   -1.5019   28.4302    7.1110 C   0  0  0  0  0  0  0  0  0  0  0  0
    3.2089   24.5347    7.3248 C   0  0  0  0  0  0  0  0  0  0  0  0
    2.9641   24.1601    5.8932 C   0  0  0  0  0  0  0  0  0  0  0  0
    2.7193   23.7855    4.4614 C   0  0  0  0  0  0  0  0  0  0  0  0
    4.1193   23.2048    5.9456 C   0  0  0  0  0  0  0  0  0  0  0  0
   -8.7215   32.8134    9.7069 H   0  0  0  0  0  0  0  0  0  0  0  0
   -7.6606   30.9863   11.2189 H   0  0  0  0  0  0  0  0  0  0  0  0
   -8.7912   31.0503    7.4850 H   0  0  0  0  0  0  0  0  0  0  0  0
   -9.0678   28.6026    9.3276 H   0  0  0  0  0  0  0  0  0  0  0  0
   -8.4730   27.0415    9.5295 H   0  0  0  0  0  0  0  0  0  0  0  0
   -5.8101   28.1230    8.6894 H   0  0  0  0  0  0  0  0  0  0  0  0
   -5.2120   25.9695    9.0179 H   0  0  0  0  0  0  0  0  0  0  0  0
   -9.0286   25.4775    9.9882 H   0  0  0  0  0  0  0  0  0  0  0  0
   -6.5415   22.3863   10.0872 H   0  0  0  0  0  0  0  0  0  0  0  0
   -8.4359   23.3189   10.2920 H   0  0  0  0  0  0  0  0  0  0  0  0
   -5.6885   24.2440    9.5203 H   0  0  0  0  0  0  0  0  0  0  0  0
   -6.9105   30.8099    8.0145 H   0  0  0  0  0  0  0  0  0  0  0  0
   -5.5878   28.2925    8.9524 H   0  0  0  0  0  0  0  0  0  0  0  0
   -4.6689   28.6115    7.5527 H   0  0  0  0  0  0  0  0  0  0  0  0
   -5.9929   30.7209    9.7993 H   0  0  0  0  0  0  0  0  0  0  0  0
   -4.5574   32.1235    7.5770 H   0  0  0  0  0  0  0  0  0  0  0  0
   -6.8440   32.3598    9.8692 H   0  0  0  0  0  0  0  0  0  0  0  0
   -4.2770   33.2231    8.5919 H   0  0  0  0  0  0  0  0  0  0  0  0
   -6.1328   35.4362   10.2969 H   0  0  0  0  0  0  0  0  0  0  0  0
   -7.1123   33.5553   10.3527 H   0  0  0  0  0  0  0  0  0  0  0  0
   -4.5680   34.5871    9.1436 H   0  0  0  0  0  0  0  0  0  0  0  0
   -1.9407   29.5877    9.0472 H   0  0  0  0  0  0  0  0  0  0  0  0
   -3.7466   29.7405    5.6650 H   0  0  0  0  0  0  0  0  0  0  0  0
   -3.1779   28.6710    4.2156 H   0  0  0  0  0  0  0  0  0  0  0  0
   -2.6969   27.8064    3.0882 H   0  0  0  0  0  0  0  0  0  0  0  0
   -1.5599   26.1685    1.4224 H   0  0  0  0  0  0  0  0  0  0  0  0
    0.5386   26.1484    5.7401 H   0  0  0  0  0  0  0  0  0  0  0  0
    1.2293   24.1422    2.2386 H   0  0  0  0  0  0  0  0  0  0  0  0
    2.3072   25.2656    7.2475 H   0  0  0  0  0  0  0  0  0  0  0  0
    2.7963   25.3901    8.5718 H   0  0  0  0  0  0  0  0  0  0  0  0
    1.9564   26.6100    9.8272 H   0  0  0  0  0  0  0  0  0  0  0  0
    2.7231   25.6472    9.0524 H   0  0  0  0  0  0  0  0  0  0  0  0
    0.0686   28.2436    9.9198 H   0  0  0  0  0  0  0  0  0  0  0  0
    1.3237   27.2435   10.0700 H   0  0  0  0  0  0  0  0  0  0  0  0
   -1.1058   29.0363    9.4275 H   0  0  0  0  0  0  0  0  0  0  0  0
    4.3854   23.6322    7.5514 H   0  0  0  0  0  0  0  0  0  0  0  0
    3.5927   24.7901    8.7522 H   0  0  0  0  0  0  0  0  0  0  0  0
    2.4745   23.4109    3.0297 H   0  0  0  0  0  0  0  0  0  0  0  0
    3.8356   22.7911    4.3392 H   0  0  0  0  0  0  0  0  0  0  0  0
    1.5433   24.6885    4.2346 H   0  0  0  0  0  0  0  0  0  0  0  0
    5.2746   22.2495    5.9980 H   0  0  0  0  0  0  0  0  0  0  0  0
    4.1052   22.8210    4.4955 H   0  0  0  0  0  0  0  0  0  0  0  0
    4.4151   23.3557    7.4083 H   0  0  0  0  0  0  0  0  0  0  0  0
  1  2  2  3
  2  3  1  0
  3  4  1  0
  4  5  1  0
  5  6  2  3
  6  7  1  0
  3  8  1  0
  8  9  1  0
  9 10  1  0
 10 11  1  0
 11 12  1  0
  9 13  1  0
 13 14  2  0
 13 15  1  0
 15 16  1  0
 16 17  1  0
 17 18  1  0
 18 19  1  0
 19 20  1  0
 21 20  1  6
 21 22  1  0
 22 23  1  0
 23 24  1  1
 23 25  1  0
 25 26  1  0
 25 27  1  0
 25 28  1  0
 28 29  1  0
 29 30  1  0
 30 31  1  0
 31 32  1  0
 33 32  1  1
 29 34  1  0
 34 35  1  0
 35 36  1  0
 35 37  1  0
 33 15  1  0
 33 16  1  0
 21 17  1  0
 35 28  1  0
 22 18  1  0
 23 19  1  0
 33 21  1  0
  1 38  1  0
  1 39  1  0
  2 40  1  0
  3 41  1  6
  4 42  1  0
  4 43  1  0
  5 44  1  0
  6 45  1  0
  7 46  1  0
  7 47  1  0
  7 48  1  0
  8 49  1  0
  8 50  1  0
  9 51  1  1
 10 52  1  0
 10 53  1  0
 11 54  1  0
 11 55  1  0
 12 56  1  0
 12 57  1  0
 12 58  1  0
 15 59  1  1
 16 60  1  6
 17 61  1  6
 18 62  1  1
 19 63  1  6
 22 64  1  1
 24 65  1  0
 28 66  1  6
 29 67  1  6
 30 68  1  0
 30 69  1  0
 31 70  1  0
 31 71  1  0
 32 72  1  0
 34 73  1  0
 34 74  1  0
 36 75  1  0
 36 76  1  0
 36 77  1  0
 37 78  1  0
 37 79  1  0
 37 80  1  0
M  END
