
     RDKit          2D

 21 23  0  0  0  0  0  0  0  0999 V2000
   -0.6858   29.0718    0.0087 O   0  0  0  0  0  0  0  0  0  0  0  0
   -0.8282   29.2207    1.4946 C   0  0  0  0  0  0  0  0  0  0  0  0
   -1.0339   28.0083    2.3534 N   0  0  0  0  0  0  0  0  0  0  0  0
   -1.1763   28.1572    3.8392 C   0  0  0  0  0  0  0  0  0  0  0  0
   -1.2570   28.8054    5.1896 C   0  0  0  0  0  0  0  0  0  0  0  0
   -1.4659   27.9643    6.4139 C   0  0  0  0  0  0  0  0  0  0  0  0
   -1.5941   26.4751    6.2879 C   0  0  0  0  0  0  0  0  0  0  0  0
   -1.3852   27.3162    5.0636 C   0  0  0  0  0  0  0  0  0  0  0  0
   -1.3044   26.6680    3.7132 C   0  0  0  0  0  0  0  0  0  0  0  0
   -1.5133   25.8270    4.9376 C   0  0  0  0  0  0  0  0  0  0  0  0
   -0.7650   30.5820    2.1213 H   0  0  0  0  0  0  0  0  0  0  0  0
   -1.0722   26.7320    1.5663 H   0  0  0  0  0  0  0  0  0  0  0  0
   -0.9987   29.5947    3.4492 H   0  0  0  0  0  0  0  0  0  0  0  0
   -1.0513   30.0178    4.3306 H   0  0  0  0  0  0  0  0  0  0  0  0
   -1.2663   29.8746    6.2416 H   0  0  0  0  0  0  0  0  0  0  0  0
   -1.4027   29.3256    7.0408 H   0  0  0  0  0  0  0  0  0  0  0  0
   -1.6528   27.5960    7.8559 H   0  0  0  0  0  0  0  0  0  0  0  0
   -1.7613   26.3638    7.7744 H   0  0  0  0  0  0  0  0  0  0  0  0
   -1.3406   28.0698    5.3198 H   0  0  0  0  0  0  0  0  0  0  0  0
   -1.1541   26.5971    2.2225 H   0  0  0  0  0  0  0  0  0  0  0  0
   -1.6415   24.3378    4.8116 H   0  0  0  0  0  0  0  0  0  0  0  0
  1  2  2  0
  2  3  1  0
  3  4  1  0
  4  5  1  0
  5  6  1  0
  6  7  1  0
  7  8  1  0
  8  9  1  0
  9 10  1  0
  9  4  1  0
 10  7  1  0
 10  8  1  0
  2 11  1  0
  3 12  1  0
  4 13  1  0
  5 14  1  0
  5 15  1  0
  6 16  1  0
  6 17  1  0
  7 18  1  0
  8 19  1  0
  9 20  1  0
 10 21  1  0
M  END
