
     RDKit          2D

100109  0  0  0  0  0  0  0  0999 V2000
   -6.6208   23.5151   16.4492 C   0  0  0  0  0  0  0  0  0  0  0  0
   -6.1341   23.7830   15.0558 C   0  0  0  0  0  0  0  0  0  0  0  0
   -6.2628   25.1568   14.4676 C   0  0  0  0  0  0  0  0  0  0  0  0
   -5.5189   22.6771   14.2506 C   0  0  0  0  0  0  0  0  0  0  0  0
   -4.9035   21.5710   13.4454 C   0  0  0  0  0  0  0  0  0  0  0  0
   -4.2882   20.4651   12.6402 C   0  0  0  0  0  0  0  0  0  0  0  0
   -4.4643   22.5669   12.4132 C   0  0  0  0  0  0  0  0  0  0  0  0
   -4.0250   23.5627   11.3811 C   0  0  0  0  0  0  0  0  0  0  0  0
   -3.9532   24.9780   10.8892 C   0  0  0  0  0  0  0  0  0  0  0  0
   -3.3692   25.6537    9.6842 C   0  0  0  0  0  0  0  0  0  0  0  0
   -2.6152   25.1941    8.4717 C   0  0  0  0  0  0  0  0  0  0  0  0
   -2.7409   26.6801    8.3104 O   0  0  0  0  0  0  0  0  0  0  0  0
   -1.7899   24.2652    7.2544 C   0  0  0  0  0  0  0  0  0  0  0  0
   -1.0456   24.2168    5.9530 C   0  0  0  0  0  0  0  0  0  0  0  0
   -0.4712   24.9186    4.7582 O   0  0  0  0  0  0  0  0  0  0  0  0
   -0.4200   23.1310    5.1287 C   0  0  0  0  0  0  0  0  0  0  0  0
   -0.2800   24.4987    4.5289 C   0  0  0  0  0  0  0  0  0  0  0  0
   -0.4550   25.9866    4.4541 C   0  0  0  0  0  0  0  0  0  0  0  0
    0.1198   24.7952    3.7468 C   0  0  0  0  0  0  0  0  0  0  0  0
    0.7666   25.2749    2.4813 C   0  0  0  0  0  0  0  0  0  0  0  0
    0.5917   26.7627    2.4064 N   0  0  0  0  0  0  0  0  0  0  0  0
   -0.1633   27.2026    3.6257 C   0  0  0  0  0  0  0  0  0  0  0  0
   -0.9146   27.3374    4.9170 C   0  0  0  0  0  0  0  0  0  0  0  0
   -1.5793   28.3174    5.8377 C   0  0  0  0  0  0  0  0  0  0  0  0
   -1.2876   29.5334    5.0093 C   0  0  0  0  0  0  0  0  0  0  0  0
   -1.8623   30.7248    5.7165 O   0  0  0  0  0  0  0  0  0  0  0  0
   -2.5092   30.2452    6.9820 N   0  0  0  0  0  0  0  0  0  0  0  0
   -2.3342   28.7573    7.0569 C   0  0  0  0  0  0  0  0  0  0  0  0
   -3.0489   28.5809    8.3639 C   0  0  0  0  0  0  0  0  0  0  0  0
   -3.0139   30.0170    7.9318 N   0  0  0  0  0  0  0  0  0  0  0  0
   -3.6517   31.0728    8.7854 C   0  0  0  0  0  0  0  0  0  0  0  0
   -3.5996   27.8188    9.5326 O   0  0  0  0  0  0  0  0  0  0  0  0
   -3.8913   26.6029   10.3610 N   0  0  0  0  0  0  0  0  0  0  0  0
   -3.8734   25.1432   10.7058 C   0  0  0  0  0  0  0  0  0  0  0  0
   -3.5490   23.6921   10.5074 C   0  0  0  0  0  0  0  0  0  0  0  0
   -3.5427   22.2370   10.8715 C   0  0  0  0  0  0  0  0  0  0  0  0
   -2.7912   22.5459    9.4653 C   0  0  0  0  0  0  0  0  0  0  0  0
   -2.2169   23.2477    8.2705 C   0  0  0  0  0  0  0  0  0  0  0  0
   -2.0764   21.7604    8.4061 C   0  0  0  0  0  0  0  0  0  0  0  0
   -2.4181   20.6099    9.3059 N   0  0  0  0  0  0  0  0  0  0  0  0
   -1.4468   20.6841    7.5722 C   0  0  0  0  0  0  0  0  0  0  0  0
   -0.6897   20.4037    6.3080 C   0  0  0  0  0  0  0  0  0  0  0  0
   -0.4769   21.7069    5.5964 C   0  0  0  0  0  0  0  0  0  0  0  0
   -1.1025   22.7927    6.4208 C   0  0  0  0  0  0  0  0  0  0  0  0
   -1.7019   22.1606    7.6419 C   0  0  0  0  0  0  0  0  0  0  0  0
   -7.2361   24.6210   17.2543 H   0  0  0  0  0  0  0  0  0  0  0  0
   -6.4921   22.1411   17.0373 H   0  0  0  0  0  0  0  0  0  0  0  0
   -6.3915   26.5307   13.8794 H   0  0  0  0  0  0  0  0  0  0  0  0
   -6.8037   25.6644   15.7714 H   0  0  0  0  0  0  0  0  0  0  0  0
   -5.7219   24.6493   13.1638 H   0  0  0  0  0  0  0  0  0  0  0  0
   -5.1073   23.8068   13.3539 H   0  0  0  0  0  0  0  0  0  0  0  0
   -6.0091   21.6746   15.2529 H   0  0  0  0  0  0  0  0  0  0  0  0
   -5.3428   20.5753   14.4776 H   0  0  0  0  0  0  0  0  0  0  0  0
   -3.6730   19.3592   11.8350 H   0  0  0  0  0  0  0  0  0  0  0  0
   -3.7958   19.8205   13.9019 H   0  0  0  0  0  0  0  0  0  0  0  0
   -4.7806   21.1098   11.3785 H   0  0  0  0  0  0  0  0  0  0  0  0
   -3.5625   21.5357   11.8021 H   0  0  0  0  0  0  0  0  0  0  0  0
   -5.3059   23.7118   12.8940 H   0  0  0  0  0  0  0  0  0  0  0  0
   -4.7777   24.0469   12.5849 H   0  0  0  0  0  0  0  0  0  0  0  0
   -4.7001   25.0557   12.1877 H   0  0  0  0  0  0  0  0  0  0  0  0
   -4.5546   26.1176   11.6571 H   0  0  0  0  0  0  0  0  0  0  0  0
   -3.7878   27.0429   10.0649 H   0  0  0  0  0  0  0  0  0  0  0  0
   -3.2842   27.0607    9.1713 H   0  0  0  0  0  0  0  0  0  0  0  0
   -1.9697   25.6788    7.2073 H   0  0  0  0  0  0  0  0  0  0  0  0
   -2.1569   27.3559    7.1053 H   0  0  0  0  0  0  0  0  0  0  0  0
   -2.1242   25.7112    7.4716 H   0  0  0  0  0  0  0  0  0  0  0  0
   -1.3739   25.6658    6.1589 H   0  0  0  0  0  0  0  0  0  0  0  0
    0.1617   23.8506    3.9163 H   0  0  0  0  0  0  0  0  0  0  0  0
    0.2399   23.2207    3.9407 H   0  0  0  0  0  0  0  0  0  0  0  0
    0.4254   24.7265    3.2249 H   0  0  0  0  0  0  0  0  0  0  0  0
   -0.1223   23.5222    4.5024 H   0  0  0  0  0  0  0  0  0  0  0  0
    0.7114   23.6356    3.0015 H   0  0  0  0  0  0  0  0  0  0  0  0
    1.0910   23.8239    2.2829 H   0  0  0  0  0  0  0  0  0  0  0  0
    1.4812   25.4513    1.1743 H   0  0  0  0  0  0  0  0  0  0  0  0
    1.0850   27.6542    1.3056 H   0  0  0  0  0  0  0  0  0  0  0  0
   -0.1812   28.6624    3.2808 H   0  0  0  0  0  0  0  0  0  0  0  0
   -0.6849   28.6234    4.1800 H   0  0  0  0  0  0  0  0  0  0  0  0
   -1.4043   26.8296    5.9125 H   0  0  0  0  0  0  0  0  0  0  0  0
   -0.5836   28.6972    3.9821 H   0  0  0  0  0  0  0  0  0  0  0  0
   -0.8570   30.5445    3.9884 H   0  0  0  0  0  0  0  0  0  0  0  0
   -3.2082   31.1028    7.9949 H   0  0  0  0  0  0  0  0  0  0  0  0
   -2.8913   29.9791    7.7252 H   0  0  0  0  0  0  0  0  0  0  0  0
   -3.7707   29.3293    9.4450 H   0  0  0  0  0  0  0  0  0  0  0  0
   -2.4453   30.7340    6.7433 H   0  0  0  0  0  0  0  0  0  0  0  0
   -4.2895   32.1284    9.6390 H   0  0  0  0  0  0  0  0  0  0  0  0
   -3.2351   32.1225    7.7983 H   0  0  0  0  0  0  0  0  0  0  0  0
   -4.1429   30.1595    9.8692 H   0  0  0  0  0  0  0  0  0  0  0  0
   -4.6357   27.1889   11.5239 H   0  0  0  0  0  0  0  0  0  0  0  0
   -4.5443   26.1035   11.6425 H   0  0  0  0  0  0  0  0  0  0  0  0
   -4.5061   24.6146   11.9590 H   0  0  0  0  0  0  0  0  0  0  0  0
   -3.0657   24.6043    9.4191 H   0  0  0  0  0  0  0  0  0  0  0  0
   -4.0293   21.1789   12.0033 H   0  0  0  0  0  0  0  0  0  0  0  0
   -2.7157   24.5537    8.8142 H   0  0  0  0  0  0  0  0  0  0  0  0
   -2.0035   19.2174    8.9331 H   0  0  0  0  0  0  0  0  0  0  0  0
   -3.1743   20.8519   10.5784 H   0  0  0  0  0  0  0  0  0  0  0  0
   -0.2266   19.0567    5.8380 H   0  0  0  0  0  0  0  0  0  0  0  0
    0.2683   21.1288    4.4300 H   0  0  0  0  0  0  0  0  0  0  0  0
   -1.6445   24.0387    7.0562 H   0  0  0  0  0  0  0  0  0  0  0  0
   -1.9320   23.6427    7.6659 H   0  0  0  0  0  0  0  0  0  0  0  0
   -2.4437   22.1830    8.9455 H   0  0  0  0  0  0  0  0  0  0  0  0
  1  2  2  3
  2  3  1  0
  2  4  1  0
  4  5  1  0
  5  6  1  0
  5  7  1  0
  7  8  1  0
  8  9  1  0
  9 10  1  0
 10 11  1  0
 11 12  1  0
 11 13  1  0
 13 14  1  0
 14 15  1  0
 14 16  1  0
 16 17  1  0
 17 18  1  0
 18 19  1  0
 19 20  1  0
 20 21  1  0
 21 22  1  0
 22 23  1  0
 23 24  1  0
 24 25  1  0
 25 26  1  0
 26 27  1  0
 27 28  1  0
 28 29  1  0
 29 30  1  0
 30 31  1  0
 29 32  1  0
 32 33  1  0
 33 34  1  0
 34 35  1  0
 35 36  1  0
 36 37  1  0
 37 38  1  0
 38 39  1  0
 39 40  1  0
 39 41  1  0
 41 42  2  0
 42 43  1  0
 43 44  1  0
 44 45  1  0
 36  8  1  0
 39 37  1  0
 45 41  1  0
 38 13  1  0
 43 16  1  0
 44 16  1  0
 22 18  1  0
 28 24  1  0
 37 35  1  0
 23 18  1  0
  1 46  1  0
  1 47  1  0
  3 48  1  0
  3 49  1  0
  3 50  1  0
  4 51  1  0
  4 52  1  0
  5 53  1  0
  6 54  1  0
  6 55  1  0
  6 56  1  0
  7 57  1  0
  7 58  1  0
  8 59  1  0
  9 60  1  0
  9 61  1  0
 10 62  1  0
 10 63  1  0
 11 64  1  0
 12 65  1  0
 13 66  1  0
 14 67  1  0
 15 68  1  0
 17 69  1  0
 17 70  1  0
 19 71  1  0
 19 72  1  0
 20 73  1  0
 20 74  1  0
 21 75  1  0
 22 76  1  0
 23 77  1  0
 24 78  1  0
 25 79  1  0
 25 80  1  0
 27 81  1  0
 28 82  1  0
 29 83  1  0
 30 84  1  0
 31 85  1  0
 31 86  1  0
 31 87  1  0
 33 88  1  0
 34 89  1  0
 34 90  1  0
 35 91  1  0
 36 92  1  0
 38 93  1  0
 40 94  1  0
 40 95  1  0
 42 96  1  0
 43 97  1  0
 44 98  1  0
 45 99  1  0
 45100  1  0
M  END
