
     RDKit          2D

 62 67  0  0  0  0  0  0  0  0999 V2000
   18.5079  -22.3385  -16.2729 C   0  0  0  0  0  0  0  0  0  0  0  0
   18.5743  -21.9127  -14.8360 C   0  0  0  0  0  0  0  0  0  0  0  0
   17.6948  -23.1058  -14.6056 C   0  0  0  0  0  0  0  0  0  0  0  0
   17.3986  -23.1866  -13.1374 C   0  0  0  0  0  0  0  0  0  0  0  0
   16.8095  -24.2299  -14.0398 C   0  0  0  0  0  0  0  0  0  0  0  0
   16.5440  -24.2561  -12.5244 C   0  0  0  0  0  0  0  0  0  0  0  0
   16.1748  -24.4467  -11.0831 C   0  0  0  0  0  0  0  0  0  0  0  0
   16.5689  -23.6147   -9.8988 C   0  0  0  0  0  0  0  0  0  0  0  0
   15.8897  -24.3140   -8.7588 C   0  0  0  0  0  0  0  0  0  0  0  0
   15.9034  -23.9581   -7.3017 C   0  0  0  0  0  0  0  0  0  0  0  0
   16.5998  -22.8150   -6.6247 C   0  0  0  0  0  0  0  0  0  0  0  0
   17.4544  -21.7454   -7.2378 C   0  0  0  0  0  0  0  0  0  0  0  0
   17.8237  -21.5548   -8.6790 C   0  0  0  0  0  0  0  0  0  0  0  0
   18.5924  -20.3564   -8.2069 C   0  0  0  0  0  0  0  0  0  0  0  0
   18.3078  -21.1852  -10.0497 C   0  0  0  0  0  0  0  0  0  0  0  0
   18.1088  -21.6875  -11.0034 C   0  0  0  0  0  0  0  0  0  0  0  0
   18.0950  -22.0434  -12.4604 C   0  0  0  0  0  0  0  0  0  0  0  0
   18.8216  -21.2561  -13.5103 C   0  0  0  0  0  0  0  0  0  0  0  0
   19.6354  -20.2894  -14.3183 C   0  0  0  0  0  0  0  0  0  0  0  0
   20.4493  -19.3225  -15.1263 C   0  0  0  0  0  0  0  0  0  0  0  0
   20.2615  -19.9049  -16.4959 C   0  0  0  0  0  0  0  0  0  0  0  0
   21.3284  -18.1535  -15.4588 C   0  0  0  0  0  0  0  0  0  0  0  0
   20.9198  -18.4044  -14.0374 C   0  0  0  0  0  0  0  0  0  0  0  0
   17.4296  -22.3868   -9.8633 C   0  0  0  0  0  0  0  0  0  0  0  0
   18.4415  -22.7643  -17.7096 H   0  0  0  0  0  0  0  0  0  0  0  0
   19.2209  -21.3687  -16.4386 H   0  0  0  0  0  0  0  0  0  0  0  0
   18.0463  -22.9883  -16.2604 H   0  0  0  0  0  0  0  0  0  0  0  0
   19.2236  -21.1516  -15.5256 H   0  0  0  0  0  0  0  0  0  0  0  0
   16.9713  -24.2713  -15.2124 H   0  0  0  0  0  0  0  0  0  0  0  0
   17.7003  -23.2777  -15.3839 H   0  0  0  0  0  0  0  0  0  0  0  0
   16.2203  -25.2732  -14.9423 H   0  0  0  0  0  0  0  0  0  0  0  0
   16.0867  -25.0036  -12.9773 H   0  0  0  0  0  0  0  0  0  0  0  0
   17.3886  -23.7105  -15.3223 H   0  0  0  0  0  0  0  0  0  0  0  0
   16.2159  -25.0108  -13.7785 H   0  0  0  0  0  0  0  0  0  0  0  0
   15.6833  -25.4841  -12.5599 H   0  0  0  0  0  0  0  0  0  0  0  0
   15.4180  -25.6370  -11.5936 H   0  0  0  0  0  0  0  0  0  0  0  0
   15.4324  -25.2643  -10.0679 H   0  0  0  0  0  0  0  0  0  0  0  0
   16.9381  -23.4242  -11.3401 H   0  0  0  0  0  0  0  0  0  0  0  0
   15.4026  -25.2504   -9.8246 H   0  0  0  0  0  0  0  0  0  0  0  0
   15.0159  -25.4499   -8.3155 H   0  0  0  0  0  0  0  0  0  0  0  0
   15.0269  -25.1666   -7.1557 H   0  0  0  0  0  0  0  0  0  0  0  0
   15.4395  -24.2955   -5.9157 H   0  0  0  0  0  0  0  0  0  0  0  0
   15.9938  -23.3856   -5.3768 H   0  0  0  0  0  0  0  0  0  0  0  0
   16.8951  -22.0998   -5.3397 H   0  0  0  0  0  0  0  0  0  0  0  0
   17.5753  -21.2485   -5.8276 H   0  0  0  0  0  0  0  0  0  0  0  0
   18.2864  -20.5163   -7.0213 H   0  0  0  0  0  0  0  0  0  0  0  0
   19.3611  -19.1580   -7.7349 H   0  0  0  0  0  0  0  0  0  0  0  0
   19.0246  -20.0786   -9.6162 H   0  0  0  0  0  0  0  0  0  0  0  0
   18.2571  -20.4861   -6.7506 H   0  0  0  0  0  0  0  0  0  0  0  0
   19.1366  -20.1833  -10.7977 H   0  0  0  0  0  0  0  0  0  0  0  0
   18.9464  -20.4573  -10.8164 H   0  0  0  0  0  0  0  0  0  0  0  0
   18.8210  -20.8760  -11.8604 H   0  0  0  0  0  0  0  0  0  0  0  0
   19.3303  -20.2963  -12.4759 H   0  0  0  0  0  0  0  0  0  0  0  0
   19.8695  -19.6521  -12.9807 H   0  0  0  0  0  0  0  0  0  0  0  0
   19.2996  -21.0500  -15.5667 H   0  0  0  0  0  0  0  0  0  0  0  0
   20.0737  -20.4872  -17.8654 H   0  0  0  0  0  0  0  0  0  0  0  0
   21.0839  -18.8941  -17.2387 H   0  0  0  0  0  0  0  0  0  0  0  0
   19.3933  -21.0577  -16.0868 H   0  0  0  0  0  0  0  0  0  0  0  0
   21.5513  -18.1800  -16.9419 H   0  0  0  0  0  0  0  0  0  0  0  0
   22.1667  -16.9231  -15.2754 H   0  0  0  0  0  0  0  0  0  0  0  0
   21.6162  -17.2612  -13.3605 H   0  0  0  0  0  0  0  0  0  0  0  0
   20.3464  -18.9199  -12.7508 H   0  0  0  0  0  0  0  0  0  0  0  0
  1  2  1  0
  2  3  1  0
  3  4  1  0
  4  5  1  0
  4  6  1  0
  6  7  1  0
  7  8  1  0
  8  9  1  0
  9 10  1  0
 10 11  1  0
 11 12  1  0
 12 13  1  0
 13 14  1  0
 13 15  1  0
 15 16  1  0
 16 17  1  0
 17 18  1  0
 18 19  1  0
 19 20  1  0
 20 21  1  0
 20 22  1  0
 22 23  1  0
 16 24  1  0
 18  2  1  0
 23 20  1  0
 17  4  1  0
 24  8  1  0
 24 13  1  0
 24 15  1  0
  1 25  1  0
  1 26  1  0
  1 27  1  0
  2 28  1  0
  3 29  1  0
  3 30  1  0
  5 31  1  0
  5 32  1  0
  5 33  1  0
  6 34  1  0
  6 35  1  0
  7 36  1  0
  7 37  1  0
  8 38  1  0
  9 39  1  0
  9 40  1  0
 10 41  1  0
 10 42  1  0
 11 43  1  0
 11 44  1  0
 12 45  1  0
 12 46  1  0
 14 47  1  0
 14 48  1  0
 14 49  1  0
 15 50  1  0
 16 51  1  0
 17 52  1  0
 18 53  1  0
 19 54  1  0
 19 55  1  0
 21 56  1  0
 21 57  1  0
 21 58  1  0
 22 59  1  0
 22 60  1  0
 23 61  1  0
 23 62  1  0
M  END
