
     RDKit          2D

 22 23  0  0  0  0  0  0  0  0999 V2000
   16.8086  -19.9094  -10.4979 F   0  0  0  0  0  0  0  0  0  0  0  0
   16.5286  -19.6585   -9.0458 C   0  0  0  0  0  0  0  0  0  0  0  0
   17.7413  -18.7796   -8.9638 F   0  0  0  0  0  0  0  0  0  0  0  0
   15.3158  -20.5374   -9.1278 F   0  0  0  0  0  0  0  0  0  0  0  0
   16.2486  -19.4076   -7.5937 C   0  0  0  0  0  0  0  0  0  0  0  0
   15.9686  -19.1567   -6.1416 C   0  0  0  0  0  0  0  0  0  0  0  0
   15.6886  -18.9057   -4.6894 C   0  0  0  0  0  0  0  0  0  0  0  0
   14.3484  -19.2541   -4.1129 C   0  0  0  0  0  0  0  0  0  0  0  0
   14.0684  -19.0032   -2.6608 C   0  0  0  0  0  0  0  0  0  0  0  0
   15.0606  -18.2506   -1.8248 C   0  0  0  0  0  0  0  0  0  0  0  0
   13.7884  -18.7523   -1.2087 C   0  0  0  0  0  0  0  0  0  0  0  0
   12.7960  -19.5049   -2.0447 N   0  0  0  0  0  0  0  0  0  0  0  0
   17.6069  -18.7904   -7.4384 H   0  0  0  0  0  0  0  0  0  0  0  0
   14.8903  -20.0247   -7.7489 H   0  0  0  0  0  0  0  0  0  0  0  0
   17.1109  -18.1859   -6.0891 H   0  0  0  0  0  0  0  0  0  0  0  0
   14.8263  -20.1274   -6.1941 H   0  0  0  0  0  0  0  0  0  0  0  0
   16.7489  -18.3064   -3.8138 H   0  0  0  0  0  0  0  0  0  0  0  0
   13.2881  -19.8535   -4.9885 H   0  0  0  0  0  0  0  0  0  0  0  0
   16.1156  -17.9773   -2.8556 H   0  0  0  0  0  0  0  0  0  0  0  0
   15.6866  -17.5929   -0.6308 H   0  0  0  0  0  0  0  0  0  0  0  0
   13.5084  -18.5014    0.2434 H   0  0  0  0  0  0  0  0  0  0  0  0
   11.4886  -20.2291   -2.1717 H   0  0  0  0  0  0  0  0  0  0  0  0
  1  2  1  0
  2  3  1  0
  2  4  1  0
  2  5  1  0
  5  6  1  0
  6  7  1  0
  7  8  2  3
  9  8  1  0
  9 10  1  0
 10 11  1  0
 11 12  1  0
 11  9  1  0
  9 12  1  1
  5 13  1  0
  5 14  1  0
  6 15  1  0
  6 16  1  0
  7 17  1  0
  8 18  1  0
 10 19  1  0
 10 20  1  0
 11 21  1  6
 12 22  1  0
M  END
