
     RDKit          2D

 99109  0  0  0  0  0  0  0  0999 V2000
   12.0894  -21.8209   -5.2202 C   0  0  0  0  0  0  0  0  0  0  0  0
   12.9095  -22.9248   -4.6214 C   0  0  0  0  0  0  0  0  0  0  0  0
   13.7297  -24.0288   -4.0225 C   0  0  0  0  0  0  0  0  0  0  0  0
   14.5500  -25.1327   -3.4238 C   0  0  0  0  0  0  0  0  0  0  0  0
   14.8249  -23.7501   -5.0089 C   0  0  0  0  0  0  0  0  0  0  0  0
   14.2072  -22.6148   -5.7703 C   0  0  0  0  0  0  0  0  0  0  0  0
   15.8230  -24.7886   -4.5902 C   0  0  0  0  0  0  0  0  0  0  0  0
   16.8212  -25.8271   -4.1715 C   0  0  0  0  0  0  0  0  0  0  0  0
   18.1308  -25.9427   -4.8935 O   0  0  0  0  0  0  0  0  0  0  0  0
   18.4425  -25.0199   -6.0342 C   0  0  0  0  0  0  0  0  0  0  0  0
   18.7541  -24.0970   -7.1749 C   0  0  0  0  0  0  0  0  0  0  0  0
   18.5912  -23.0019   -8.1869 C   0  0  0  0  0  0  0  0  0  0  0  0
   18.4283  -21.9068   -9.1990 C   0  0  0  0  0  0  0  0  0  0  0  0
   17.0686  -21.5980   -8.6459 C   0  0  0  0  0  0  0  0  0  0  0  0
   16.9057  -20.5029   -9.6580 C   0  0  0  0  0  0  0  0  0  0  0  0
   17.4444  -19.7089  -10.8110 C   0  0  0  0  0  0  0  0  0  0  0  0
   18.2654  -20.8117  -10.2110 C   0  0  0  0  0  0  0  0  0  0  0  0
   19.9490  -23.3137   -8.7429 C   0  0  0  0  0  0  0  0  0  0  0  0
   19.7860  -22.2188   -9.7551 N   0  0  0  0  0  0  0  0  0  0  0  0
   21.1438  -22.5306  -10.3110 C   0  0  0  0  0  0  0  0  0  0  0  0
   22.5016  -22.8423  -10.8670 C   0  0  0  0  0  0  0  0  0  0  0  0
   22.3386  -21.7475  -11.8792 C   0  0  0  0  0  0  0  0  0  0  0  0
   22.1756  -20.6527  -12.8915 C   0  0  0  0  0  0  0  0  0  0  0  0
   23.5342  -20.9632  -13.4463 C   0  0  0  0  0  0  0  0  0  0  0  0
   24.8928  -21.2738  -14.0010 C   0  0  0  0  0  0  0  0  0  0  0  0
   26.2514  -21.5844  -14.5557 C   0  0  0  0  0  0  0  0  0  0  0  0
   27.6100  -21.8949  -15.1105 C   0  0  0  0  0  0  0  0  0  0  0  0
   28.9686  -22.2055  -15.6652 C   0  0  0  0  0  0  0  0  0  0  0  0
   27.4428  -20.8068  -16.1293 C   0  0  0  0  0  0  0  0  0  0  0  0
   23.3711  -19.8684  -14.4585 P   0  0  0  0  0  0  0  0  0  0  0  0
   24.2165  -19.3138  -15.5666 O   0  0  0  0  0  0  0  0  0  0  0  0
   22.0126  -19.5578  -13.9038 C   0  0  0  0  0  0  0  0  0  0  0  0
   21.8494  -18.4630  -14.9161 O   0  0  0  0  0  0  0  0  0  0  0  0
   20.6539  -19.2472  -13.3491 C   0  0  0  0  0  0  0  0  0  0  0  0
   20.2656  -18.1021  -14.2368 C   0  0  0  0  0  0  0  0  0  0  0  0
   21.2070  -17.6278  -15.3039 O   0  0  0  0  0  0  0  0  0  0  0  0
   18.9361  -17.4313  -14.0572 O   0  0  0  0  0  0  0  0  0  0  0  0
   19.3243  -18.5764  -13.1696 C   0  0  0  0  0  0  0  0  0  0  0  0
   18.3830  -19.0508  -12.1023 O   0  0  0  0  0  0  0  0  0  0  0  0
   17.0533  -18.3802  -11.9230 O   0  0  0  0  0  0  0  0  0  0  0  0
   22.6647  -23.9372   -9.8546 C   0  0  0  0  0  0  0  0  0  0  0  0
   22.1270  -24.7295   -8.7000 C   0  0  0  0  0  0  0  0  0  0  0  0
   21.3068  -23.6254   -9.2988 C   0  0  0  0  0  0  0  0  0  0  0  0
   17.4444  -23.9814   -6.4529 C   0  0  0  0  0  0  0  0  0  0  0  0
   16.1346  -23.8657   -5.7309 C   0  0  0  0  0  0  0  0  0  0  0  0
   11.2691  -20.7169   -5.8190 H   0  0  0  0  0  0  0  0  0  0  0  0
   10.9953  -22.0977   -4.2320 H   0  0  0  0  0  0  0  0  0  0  0  0
   12.8879  -21.4893   -6.0738 H   0  0  0  0  0  0  0  0  0  0  0  0
   13.3686  -22.6393   -5.2071 H   0  0  0  0  0  0  0  0  0  0  0  0
   11.8145  -23.2031   -3.6346 H   0  0  0  0  0  0  0  0  0  0  0  0
   12.6346  -24.3073   -3.0362 H   0  0  0  0  0  0  0  0  0  0  0  0
   15.4976  -26.1946   -2.9501 H   0  0  0  0  0  0  0  0  0  0  0  0
   15.6439  -24.8559   -4.4122 H   0  0  0  0  0  0  0  0  0  0  0  0
   13.9839  -25.4841   -2.6996 H   0  0  0  0  0  0  0  0  0  0  0  0
   13.8311  -21.6940   -6.4680 H   0  0  0  0  0  0  0  0  0  0  0  0
   13.3318  -22.4873   -5.3389 H   0  0  0  0  0  0  0  0  0  0  0  0
   15.3438  -22.3944   -6.7239 H   0  0  0  0  0  0  0  0  0  0  0  0
   15.1562  -25.4920   -3.4454 H   0  0  0  0  0  0  0  0  0  0  0  0
   17.4388  -26.9623   -3.4102 H   0  0  0  0  0  0  0  0  0  0  0  0
   15.8341  -26.2381   -3.1194 H   0  0  0  0  0  0  0  0  0  0  0  0
   17.0742  -24.5967   -5.5883 H   0  0  0  0  0  0  0  0  0  0  0  0
   20.1204  -24.5929   -7.5454 H   0  0  0  0  0  0  0  0  0  0  0  0
   17.2236  -22.5589   -7.7586 H   0  0  0  0  0  0  0  0  0  0  0  0
   17.1484  -21.8721   -8.4175 H   0  0  0  0  0  0  0  0  0  0  0  0
   15.7089  -21.2892   -8.0929 H   0  0  0  0  0  0  0  0  0  0  0  0
   16.5815  -20.4606   -9.4941 H   0  0  0  0  0  0  0  0  0  0  0  0
   15.5502  -19.9211   -9.3858 H   0  0  0  0  0  0  0  0  0  0  0  0
   16.2154  -18.8535  -10.8983 H   0  0  0  0  0  0  0  0  0  0  0  0
   18.5952  -19.5065  -11.7517 H   0  0  0  0  0  0  0  0  0  0  0  0
   19.5366  -20.8266  -11.0072 H   0  0  0  0  0  0  0  0  0  0  0  0
   19.4622  -22.1759   -9.5906 H   0  0  0  0  0  0  0  0  0  0  0  0
   18.9469  -21.1197  -10.3366 H   0  0  0  0  0  0  0  0  0  0  0  0
   20.8165  -21.4059  -11.2480 H   0  0  0  0  0  0  0  0  0  0  0  0
   23.8595  -23.1541  -11.4229 H   0  0  0  0  0  0  0  0  0  0  0  0
   23.6875  -22.2191  -12.3356 H   0  0  0  0  0  0  0  0  0  0  0  0
   20.9898  -21.2759  -11.4229 H   0  0  0  0  0  0  0  0  0  0  0  0
   20.8470  -20.4779  -12.2175 H   0  0  0  0  0  0  0  0  0  0  0  0
   23.8616  -22.0877  -12.5092 H   0  0  0  0  0  0  0  0  0  0  0  0
   24.7257  -20.1854  -15.0195 H   0  0  0  0  0  0  0  0  0  0  0  0
   25.0599  -22.3622  -12.9825 H   0  0  0  0  0  0  0  0  0  0  0  0
   26.4122  -22.6828  -13.5470 H   0  0  0  0  0  0  0  0  0  0  0  0
   25.9262  -20.4563  -15.4893 H   0  0  0  0  0  0  0  0  0  0  0  0
   27.7773  -22.9831  -14.0917 H   0  0  0  0  0  0  0  0  0  0  0  0
   30.3272  -22.5162  -16.2199 H   0  0  0  0  0  0  0  0  0  0  0  0
   28.7895  -21.1369  -16.7024 H   0  0  0  0  0  0  0  0  0  0  0  0
   29.3120  -23.3041  -14.7033 H   0  0  0  0  0  0  0  0  0  0  0  0
   27.2755  -19.7187  -17.1480 H   0  0  0  0  0  0  0  0  0  0  0  0
   28.2726  -21.4373  -17.2081 H   0  0  0  0  0  0  0  0  0  0  0  0
   26.5721  -19.9110  -15.2988 H   0  0  0  0  0  0  0  0  0  0  0  0
   23.7074  -18.1759  -16.4008 H   0  0  0  0  0  0  0  0  0  0  0  0
   22.9454  -18.1832  -15.9014 H   0  0  0  0  0  0  0  0  0  0  0  0
   20.4046  -20.2161  -12.2314 H   0  0  0  0  0  0  0  0  0  0  0  0
   22.6305  -18.1006  -15.3126 H   0  0  0  0  0  0  0  0  0  0  0  0
   15.9981  -18.7232  -10.9136 H   0  0  0  0  0  0  0  0  0  0  0  0
   24.0186  -24.5217  -10.1297 H   0  0  0  0  0  0  0  0  0  0  0  0
   23.2720  -25.6720   -8.4752 H   0  0  0  0  0  0  0  0  0  0  0  0
   21.1916  -25.1944   -7.6235 H   0  0  0  0  0  0  0  0  0  0  0  0
   16.8913  -22.8434   -7.2585 H   0  0  0  0  0  0  0  0  0  0  0  0
   15.9009  -22.7559   -6.7126 H   0  0  0  0  0  0  0  0  0  0  0  0
  1  2  1  0
  2  3  1  0
  3  4  1  0
  3  5  1  0
  5  6  1  0
  5  7  1  0
  7  8  1  0
  8  9  1  0
  9 10  1  0
 10 11  1  0
 11 12  1  0
 12 13  1  0
 13 14  1  0
 14 15  1  0
 15 16  1  0
 16 17  1  0
 12 18  1  0
 18 19  1  0
 19 20  1  0
 20 21  1  0
 21 22  1  0
 22 23  1  0
 23 24  1  0
 24 25  1  0
 25 26  1  0
 26 27  1  0
 27 28  1  0
 27 29  1  0
 24 30  1  0
 30 31  1  0
 30 32  1  0
 32 33  1  0
 32 34  1  0
 34 35  1  0
 35 36  1  0
 35 37  1  0
 37 38  1  0
 38 39  1  0
 39 40  1  0
 21 41  1  0
 41 42  1  0
 42 43  1  0
 11 44  1  0
 44 45  1  0
 45  5  1  0
 45  7  1  0
 44 10  1  0
 17 13  1  0
 43 18  1  0
 17 15  1  0
 43 20  1  0
 32 23  1  0
 38 34  1  0
 43 41  1  0
 38 35  1  0
  1 46  1  0
  1 47  1  0
  1 48  1  0
  2 49  1  0
  2 50  1  0
  3 51  1  0
  4 52  1  0
  4 53  1  0
  4 54  1  0
  6 55  1  0
  6 56  1  0
  6 57  1  0
  7 58  1  0
  8 59  1  0
  8 60  1  0
 10 61  1  0
 11 62  1  0
 12 63  1  0
 13 64  1  0
 14 65  1  0
 14 66  1  0
 15 67  1  0
 16 68  1  0
 16 69  1  0
 17 70  1  0
 18 71  1  0
 19 72  1  0
 20 73  1  0
 21 74  1  0
 22 75  1  0
 22 76  1  0
 23 77  1  0
 24 78  1  0
 25 79  1  0
 25 80  1  0
 26 81  1  0
 26 82  1  0
 27 83  1  0
 28 84  1  0
 28 85  1  0
 28 86  1  0
 29 87  1  0
 29 88  1  0
 29 89  1  0
 31 90  1  0
 33 91  1  0
 34 92  1  0
 36 93  1  0
 40 94  1  0
 41 95  1  0
 42 96  1  0
 42 97  1  0
 44 98  1  0
 45 99  1  0
M  END
