
     RDKit          2D

 21 20  0  0  0  0  0  0  0  0999 V2000
    4.6316   23.7390    7.7471 C   0  0  0  0  0  0  0  0  0  0  0  0
    4.6410   24.7341    8.8694 C   0  0  0  0  0  0  0  0  0  0  0  0
    4.6505   25.7293    9.9916 C   0  0  0  0  0  0  0  0  0  0  0  0
    4.6599   26.7245   11.1139 O   0  0  0  0  0  0  0  0  0  0  0  0
    3.8636   27.9905   11.0004 P   0  0  0  0  0  0  0  0  0  0  0  0
    3.8730   28.9857   12.1227 O   0  0  0  0  0  0  0  0  0  0  0  0
    4.9004   30.0784   12.1475 O   0  0  0  0  0  0  0  0  0  0  0  0
    4.9098   31.0736   13.2698 O   0  0  0  0  0  0  0  0  0  0  0  0
    3.8919   30.9761   14.3672 P   0  0  0  0  0  0  0  0  0  0  0  0
    4.1841   30.1589   15.5907 Cl  0  0  0  0  0  0  0  0  0  0  0  0
    2.5819   31.6958   14.2413 O   0  0  0  0  0  0  0  0  0  0  0  0
    2.4453   33.0997   14.7519 O   0  0  0  0  0  0  0  0  0  0  0  0
    4.6222   22.7438    6.6248 H   0  0  0  0  0  0  0  0  0  0  0  0
    5.6851   24.5334    7.0337 H   0  0  0  0  0  0  0  0  0  0  0  0
    3.5781   22.9445    8.4604 H   0  0  0  0  0  0  0  0  0  0  0  0
    5.1679   23.6811    9.7987 H   0  0  0  0  0  0  0  0  0  0  0  0
    4.1142   25.7871    7.9401 H   0  0  0  0  0  0  0  0  0  0  0  0
    4.1561   26.7910    9.0544 H   0  0  0  0  0  0  0  0  0  0  0  0
    5.1449   24.6677   10.9289 H   0  0  0  0  0  0  0  0  0  0  0  0
    3.0577   28.2614    9.7645 H   0  0  0  0  0  0  0  0  0  0  0  0
    3.6187   33.7837   15.3884 H   0  0  0  0  0  0  0  0  0  0  0  0
  1  2  1  0
  2  3  1  0
  3  4  1  0
  4  5  1  0
  5  6  1  0
  6  7  1  0
  7  8  1  0
  8  9  1  0
  9 10  1  0
  9 11  1  0
 11 12  1  0
  1 13  1  0
  1 14  1  0
  1 15  1  0
  2 16  1  0
  2 17  1  0
  3 18  1  0
  3 19  1  0
  5 20  1  0
 12 21  1  0
M  END
