
     RDKit          2D

 52 60  0  0  0  0  0  0  0  0999 V2000
   14.8765  -19.4422   -9.4431 O   0  0  0  0  0  0  0  0  0  0  0  0
   16.1168  -20.2809   -9.5327 N   0  0  0  0  0  0  0  0  0  0  0  0
   17.0325  -20.1421  -10.7126 C   0  0  0  0  0  0  0  0  0  0  0  0
   17.9483  -20.0032  -11.8926 C   0  0  0  0  0  0  0  0  0  0  0  0
   17.2175  -18.9463  -12.6665 C   0  0  0  0  0  0  0  0  0  0  0  0
   17.7689  -18.4571  -13.9728 O   0  0  0  0  0  0  0  0  0  0  0  0
   18.4997  -19.5141  -13.1990 C   0  0  0  0  0  0  0  0  0  0  0  0
   19.7819  -20.0818  -13.7315 O   0  0  0  0  0  0  0  0  0  0  0  0
   20.0879  -19.9972  -15.1975 C   0  0  0  0  0  0  0  0  0  0  0  0
   20.8213  -20.1587  -16.4960 C   0  0  0  0  0  0  0  0  0  0  0  0
   21.4251  -20.6763  -15.2240 C   0  0  0  0  0  0  0  0  0  0  0  0
   22.7073  -21.2441  -15.7566 C   0  0  0  0  0  0  0  0  0  0  0  0
   22.3245  -20.8105  -17.1406 C   0  0  0  0  0  0  0  0  0  0  0  0
   23.6066  -21.3782  -17.6732 C   0  0  0  0  0  0  0  0  0  0  0  0
   23.9895  -21.8118  -16.2892 C   0  0  0  0  0  0  0  0  0  0  0  0
   16.4415  -21.2587   -8.4424 C   0  0  0  0  0  0  0  0  0  0  0  0
   15.1593  -20.6909   -7.9099 C   0  0  0  0  0  0  0  0  0  0  0  0
   14.6078  -21.1801   -6.6035 C   0  0  0  0  0  0  0  0  0  0  0  0
   15.3386  -22.2371   -5.8297 C   0  0  0  0  0  0  0  0  0  0  0  0
   16.6208  -22.8048   -6.3623 C   0  0  0  0  0  0  0  0  0  0  0  0
   18.2309  -22.3610   -8.7303 C   0  0  0  0  0  0  0  0  0  0  0  0
   18.9617  -23.4180   -7.9564 C   0  0  0  0  0  0  0  0  0  0  0  0
   19.0652  -24.3106   -6.7554 C   0  0  0  0  0  0  0  0  0  0  0  0
   17.9030  -23.3726   -6.8948 C   0  0  0  0  0  0  0  0  0  0  0  0
   17.1722  -22.3156   -7.6686 C   0  0  0  0  0  0  0  0  0  0  0  0
   14.5520  -18.4644  -10.5334 H   0  0  0  0  0  0  0  0  0  0  0  0
   18.0215  -21.0270  -10.4646 H   0  0  0  0  0  0  0  0  0  0  0  0
   16.1285  -19.0942  -11.2910 H   0  0  0  0  0  0  0  0  0  0  0  0
   18.9970  -21.0119  -11.5286 H   0  0  0  0  0  0  0  0  0  0  0  0
   15.9352  -18.3785  -12.1339 H   0  0  0  0  0  0  0  0  0  0  0  0
   18.8569  -19.2888  -15.6800 H   0  0  0  0  0  0  0  0  0  0  0  0
   19.8451  -19.5063  -17.4295 H   0  0  0  0  0  0  0  0  0  0  0  0
   21.6914  -20.4401  -17.4891 H   0  0  0  0  0  0  0  0  0  0  0  0
   21.4216  -20.8519  -14.1448 H   0  0  0  0  0  0  0  0  0  0  0  0
   23.1900  -21.6937  -14.5787 H   0  0  0  0  0  0  0  0  0  0  0  0
   21.9416  -20.3769  -18.5245 H   0  0  0  0  0  0  0  0  0  0  0  0
   21.3627  -20.3611  -16.8782 H   0  0  0  0  0  0  0  0  0  0  0  0
   24.8889  -21.9460  -18.2057 H   0  0  0  0  0  0  0  0  0  0  0  0
   23.2237  -20.9446  -19.0571 H   0  0  0  0  0  0  0  0  0  0  0  0
   24.3723  -22.2454  -14.9052 H   0  0  0  0  0  0  0  0  0  0  0  0
   25.2717  -22.3796  -16.8218 H   0  0  0  0  0  0  0  0  0  0  0  0
   17.6675  -21.6111   -9.2314 H   0  0  0  0  0  0  0  0  0  0  0  0
   13.9190  -19.8521   -7.8203 H   0  0  0  0  0  0  0  0  0  0  0  0
   15.0327  -20.0807   -8.6716 H   0  0  0  0  0  0  0  0  0  0  0  0
   13.6921  -21.3190   -5.4236 H   0  0  0  0  0  0  0  0  0  0  0  0
   13.5590  -20.1714   -6.9676 H   0  0  0  0  0  0  0  0  0  0  0  0
   15.6632  -23.2148   -4.7394 H   0  0  0  0  0  0  0  0  0  0  0  0
   14.1691  -22.0089   -4.9185 H   0  0  0  0  0  0  0  0  0  0  0  0
   18.5768  -21.8075   -9.9120 H   0  0  0  0  0  0  0  0  0  0  0  0
   20.1734  -23.7353   -8.7817 H   0  0  0  0  0  0  0  0  0  0  0  0
   20.3459  -25.0248   -7.0713 H   0  0  0  0  0  0  0  0  0  0  0  0
   18.7239  -24.9553   -5.4447 H   0  0  0  0  0  0  0  0  0  0  0  0
  1  2  1  0
  2  3  1  0
  3  4  1  0
  4  5  1  0
  5  6  1  0
  6  7  1  0
  7  8  1  0
  8  9  1  0
  9 10  1  0
 10 11  1  0
 11 12  1  0
 12 13  1  0
 13 14  1  0
 14 15  1  0
  2 16  1  0
 16 17  1  0
 17 18  1  0
 18 19  1  0
 19 20  1  0
 20 21  1  0
 21 22  1  0
 22 23  1  0
 23 24  1  0
 24 25  1  0
  7  4  1  0
 11  9  1  0
 15 12  1  0
 25 16  1  0
  7  5  1  0
 24 20  1  0
 25 20  1  0
 25 21  1  0
 24 22  1  0
  1 26  1  0
  3 27  1  0
  3 28  1  0
  4 29  1  0
  5 30  1  0
  9 31  1  0
 10 32  1  0
 10 33  1  0
 11 34  1  0
 12 35  1  0
 13 36  1  0
 13 37  1  0
 14 38  1  0
 14 39  1  0
 15 40  1  0
 15 41  1  0
 16 42  1  0
 17 43  1  0
 17 44  1  0
 18 45  1  0
 18 46  1  0
 19 47  1  0
 19 48  1  0
 21 49  1  0
 22 50  1  0
 23 51  1  0
 23 52  1  0
M  END
