
     RDKit          2D

 99102  0  0  0  0  0  0  0  0999 V2000
    3.4589   25.7891   11.3577 C   0  0  0  0  0  0  0  0  0  0  0  0
    3.1721   25.4673    9.9210 C   0  0  0  0  0  0  0  0  0  0  0  0
    3.4505   26.4846    8.8544 C   0  0  0  0  0  0  0  0  0  0  0  0
    2.9033   25.2950    8.1228 C   0  0  0  0  0  0  0  0  0  0  0  0
    2.6165   24.9732    6.6861 C   0  0  0  0  0  0  0  0  0  0  0  0
    2.7581   25.7076    5.3860 C   0  0  0  0  0  0  0  0  0  0  0  0
    3.2453   27.0681    4.9839 C   0  0  0  0  0  0  0  0  0  0  0  0
    3.7925   28.2577    5.7156 C   0  0  0  0  0  0  0  0  0  0  0  0
    4.3373   29.6552    5.6990 C   0  0  0  0  0  0  0  0  0  0  0  0
    4.8821   31.0527    5.6826 C   0  0  0  0  0  0  0  0  0  0  0  0
    4.1857   29.6967    4.2073 N   0  0  0  0  0  0  0  0  0  0  0  0
    4.5817   30.9278    3.4472 C   0  0  0  0  0  0  0  0  0  0  0  0
    4.8156   31.8578    2.2938 O   0  0  0  0  0  0  0  0  0  0  0  0
    4.2528   30.4888    2.0510 C   0  0  0  0  0  0  0  0  0  0  0  0
    4.1012   30.5304    0.5593 C   0  0  0  0  0  0  0  0  0  0  0  0
    3.9495   30.5719   -0.9324 C   0  0  0  0  0  0  0  0  0  0  0  0
    4.0794   28.5796    7.1522 C   0  0  0  0  0  0  0  0  0  0  0  0
    3.9377   27.8451    8.4524 C   0  0  0  0  0  0  0  0  0  0  0  0
    2.6068   24.1281    9.5508 C   0  0  0  0  0  0  0  0  0  0  0  0
    2.0415   22.7889    9.1806 C   0  0  0  0  0  0  0  0  0  0  0  0
    2.6107   23.7269   10.9962 C   0  0  0  0  0  0  0  0  0  0  0  0
    2.6146   23.3257   12.4415 C   0  0  0  0  0  0  0  0  0  0  0  0
    2.0461   22.3874   10.6259 C   0  0  0  0  0  0  0  0  0  0  0  0
    1.4816   21.0480   10.2556 C   0  0  0  0  0  0  0  0  0  0  0  0
    1.6315   21.0071   11.7476 C   0  0  0  0  0  0  0  0  0  0  0  0
    1.3526   19.9899   12.8142 C   0  0  0  0  0  0  0  0  0  0  0  0
    0.8083   18.5922   12.8305 C   0  0  0  0  0  0  0  0  0  0  0  0
    0.3175   17.6328   11.7872 C   0  0  0  0  0  0  0  0  0  0  0  0
    0.1676   17.6737   10.2952 C   0  0  0  0  0  0  0  0  0  0  0  0
    0.4465   18.6909    9.2288 C   0  0  0  0  0  0  0  0  0  0  0  0
    0.9908   20.0886    9.2123 C   0  0  0  0  0  0  0  0  0  0  0  0
    1.3872   21.3193    8.4521 C   0  0  0  0  0  0  0  0  0  0  0  0
    0.9887   20.6545    7.1679 N   0  0  0  0  0  0  0  0  0  0  0  0
    1.7836   22.5502    7.6919 C   0  0  0  0  0  0  0  0  0  0  0  0
    2.1801   23.7811    6.9317 C   0  0  0  0  0  0  0  0  0  0  0  0
    2.4151   24.7107    5.7782 C   0  0  0  0  0  0  0  0  0  0  0  0
    1.8530   23.3414    5.5354 C   0  0  0  0  0  0  0  0  0  0  0  0
    3.2424   24.8963   12.5434 H   0  0  0  0  0  0  0  0  0  0  0  0
    4.0242   27.1283   11.7280 H   0  0  0  0  0  0  0  0  0  0  0  0
    3.8024   26.9926   10.2212 H   0  0  0  0  0  0  0  0  0  0  0  0
    2.3585   23.8975    8.1394 H   0  0  0  0  0  0  0  0  0  0  0  0
    2.8070   24.7747    9.0798 H   0  0  0  0  0  0  0  0  0  0  0  0
    2.4254   24.6912    5.9654 H   0  0  0  0  0  0  0  0  0  0  0  0
    2.2201   23.7423    7.4463 H   0  0  0  0  0  0  0  0  0  0  0  0
    2.6071   25.7488    3.8941 H   0  0  0  0  0  0  0  0  0  0  0  0
    2.1964   24.4273    4.8424 H   0  0  0  0  0  0  0  0  0  0  0  0
    3.3964   27.8232    3.6967 H   0  0  0  0  0  0  0  0  0  0  0  0
    2.8935   26.5601    3.6171 H   0  0  0  0  0  0  0  0  0  0  0  0
    3.7878   28.6593    4.2703 H   0  0  0  0  0  0  0  0  0  0  0  0
    4.5543   29.7844    7.1776 H   0  0  0  0  0  0  0  0  0  0  0  0
    5.4269   32.4501    5.6661 H   0  0  0  0  0  0  0  0  0  0  0  0
    4.9393   31.5910    4.2836 H   0  0  0  0  0  0  0  0  0  0  0  0
    5.0300   31.0127    7.1747 H   0  0  0  0  0  0  0  0  0  0  0  0
    3.6885   28.7204    3.1829 H   0  0  0  0  0  0  0  0  0  0  0  0
    5.0835   31.9215    4.4524 H   0  0  0  0  0  0  0  0  0  0  0  0
    3.7426   29.1054    2.3263 H   0  0  0  0  0  0  0  0  0  0  0  0
    3.5610   29.1312    0.5753 H   0  0  0  0  0  0  0  0  0  0  0  0
    4.6413   31.9296    0.5433 H   0  0  0  0  0  0  0  0  0  0  0  0
    3.7978   30.6134   -2.4242 H   0  0  0  0  0  0  0  0  0  0  0  0
    3.3970   29.1774   -0.9151 H   0  0  0  0  0  0  0  0  0  0  0  0
    4.5020   31.9663   -0.9498 H   0  0  0  0  0  0  0  0  0  0  0  0
    4.6016   29.6554    8.0577 H   0  0  0  0  0  0  0  0  0  0  0  0
    4.5939   29.9664    6.9027 H   0  0  0  0  0  0  0  0  0  0  0  0
    4.1539   27.9745    9.9311 H   0  0  0  0  0  0  0  0  0  0  0  0
    4.4994   29.1254    8.9960 H   0  0  0  0  0  0  0  0  0  0  0  0
    2.6029   24.5293    8.1054 H   0  0  0  0  0  0  0  0  0  0  0  0
    1.5120   21.6826    8.3170 H   0  0  0  0  0  0  0  0  0  0  0  0
    1.9773   22.2271   10.5699 H   0  0  0  0  0  0  0  0  0  0  0  0
    2.0367   23.1905    7.7353 H   0  0  0  0  0  0  0  0  0  0  0  0
    3.1594   24.9295   11.7051 H   0  0  0  0  0  0  0  0  0  0  0  0
    2.6185   22.9245   13.8868 H   0  0  0  0  0  0  0  0  0  0  0  0
    2.0497   21.9864   12.0712 H   0  0  0  0  0  0  0  0  0  0  0  0
    3.1757   24.6062   12.9851 H   0  0  0  0  0  0  0  0  0  0  0  0
    2.1128   21.9622   12.0627 H   0  0  0  0  0  0  0  0  0  0  0  0
    1.8449   22.4759    9.1421 H   0  0  0  0  0  0  0  0  0  0  0  0
    1.7519   22.0483    9.1710 H   0  0  0  0  0  0  0  0  0  0  0  0
    2.0788   21.8157   12.9291 H   0  0  0  0  0  0  0  0  0  0  0  0
    2.1885   22.3929   11.8873 H   0  0  0  0  0  0  0  0  0  0  0  0
    1.4253   19.7550   14.2938 H   0  0  0  0  0  0  0  0  0  0  0  0
    1.8775   21.0816   13.6988 H   0  0  0  0  0  0  0  0  0  0  0  0
    0.4639   17.4515   13.7416 H   0  0  0  0  0  0  0  0  0  0  0  0
    1.0325   18.7463   14.3057 H   0  0  0  0  0  0  0  0  0  0  0  0
   -0.2424   16.2544   11.5959 H   0  0  0  0  0  0  0  0  0  0  0  0
    0.1096   16.7591   12.9886 H   0  0  0  0  0  0  0  0  0  0  0  0
   -0.2797   16.8651    9.1137 H   0  0  0  0  0  0  0  0  0  0  0  0
   -0.3505   16.2840   10.5191 H   0  0  0  0  0  0  0  0  0  0  0  0
    0.3061   18.7560    7.7367 H   0  0  0  0  0  0  0  0  0  0  0  0
   -0.0784   17.5992    8.3439 H   0  0  0  0  0  0  0  0  0  0  0  0
    0.7051   19.7662    7.7754 H   0  0  0  0  0  0  0  0  0  0  0  0
    1.8310   22.1293    9.6340 H   0  0  0  0  0  0  0  0  0  0  0  0
    0.9285   20.9123    5.6914 H   0  0  0  0  0  0  0  0  0  0  0  0
    0.4268   19.3073    6.8226 H   0  0  0  0  0  0  0  0  0  0  0  0
    0.7546   22.0574    6.7180 H   0  0  0  0  0  0  0  0  0  0  0  0
    0.8513   22.3574    6.5328 H   0  0  0  0  0  0  0  0  0  0  0  0
    2.5533   24.3569    8.2655 H   0  0  0  0  0  0  0  0  0  0  0  0
    2.9614   25.9007    6.5100 H   0  0  0  0  0  0  0  0  0  0  0  0
    2.3914   25.0649    4.3209 H   0  0  0  0  0  0  0  0  0  0  0  0
    1.7031   23.3823    4.0434 H   0  0  0  0  0  0  0  0  0  0  0  0
    1.2901   21.9772    5.2667 H   0  0  0  0  0  0  0  0  0  0  0  0
  1  2  2  3
  2  3  1  0
  3  4  1  0
  4  5  1  0
  5  6  1  0
  6  7  1  0
  7  8  1  0
  8  9  1  0
  9 10  1  0
  9 11  1  0
 11 12  1  0
 12 13  1  0
 13 14  1  0
 14 15  1  0
 15 16  1  0
  8 17  1  0
 17 18  1  0
  2 19  1  0
 19 20  1  0
 19 21  1  0
 21 22  1  0
 21 23  1  0
 23 24  1  0
 24 25  1  0
 25 26  1  0
 26 27  1  0
 27 28  1  0
 28 29  1  0
 29 30  1  0
 30 31  1  0
 31 32  1  0
 32 33  1  0
 32 34  1  0
 34 35  1  0
 35 36  1  0
 36 37  1  0
 18  3  1  0
 31 24  1  0
 37 35  1  0
 14 12  1  0
  1 38  1  0
  1 39  1  0
  3 40  1  0
  4 41  1  0
  4 42  1  0
  5 43  1  0
  5 44  1  0
  6 45  1  0
  6 46  1  0
  7 47  1  0
  7 48  1  0
  8 49  1  0
  9 50  1  0
 10 51  1  0
 10 52  1  0
 10 53  1  0
 11 54  1  0
 12 55  1  0
 14 56  1  0
 15 57  1  0
 15 58  1  0
 16 59  1  0
 16 60  1  0
 16 61  1  0
 17 62  1  0
 17 63  1  0
 18 64  1  0
 18 65  1  0
 19 66  1  0
 20 67  1  0
 20 68  1  0
 20 69  1  0
 21 70  1  0
 22 71  1  0
 22 72  1  0
 22 73  1  0
 23 74  1  0
 23 75  1  0
 24 76  1  0
 25 77  1  0
 25 78  1  0
 26 79  1  0
 26 80  1  0
 27 81  1  0
 27 82  1  0
 28 83  1  0
 28 84  1  0
 29 85  1  0
 29 86  1  0
 30 87  1  0
 30 88  1  0
 31 89  1  0
 32 90  1  0
 33 91  1  0
 33 92  1  0
 34 93  1  0
 34 94  1  0
 35 95  1  0
 36 96  1  0
 36 97  1  0
 37 98  1  0
 37 99  1  0
M  END
