
     RDKit          2D

 23 25  0  0  0  0  0  0  0  0999 V2000
   -3.6428   27.6775    7.4927 O   0  0  0  0  0  0  0  0  0  0  0  0
   -4.8450   27.4945    8.3708 C   0  0  0  0  0  0  0  0  0  0  0  0
   -5.3493   26.1908    8.9146 N   0  0  0  0  0  0  0  0  0  0  0  0
   -4.7399   24.8410    8.6758 O   0  0  0  0  0  0  0  0  0  0  0  0
   -6.5699   26.4736    9.7393 O   0  0  0  0  0  0  0  0  0  0  0  0
   -6.8199   27.9522    9.7051 C   0  0  0  0  0  0  0  0  0  0  0  0
   -6.8146   29.4366    9.4891 N   0  0  0  0  0  0  0  0  0  0  0  0
   -7.4239   30.7863    9.7279 C   0  0  0  0  0  0  0  0  0  0  0  0
   -8.6518   30.9147   10.5798 C   0  0  0  0  0  0  0  0  0  0  0  0
   -9.2611   32.2644   10.8187 C   0  0  0  0  0  0  0  0  0  0  0  0
   -8.6425   33.4857   10.2056 C   0  0  0  0  0  0  0  0  0  0  0  0
   -7.4146   33.3573    9.3538 C   0  0  0  0  0  0  0  0  0  0  0  0
   -6.8052   32.0075    9.1149 C   0  0  0  0  0  0  0  0  0  0  0  0
   -5.5773   31.8791    8.2630 Br  0  0  0  0  0  0  0  0  0  0  0  0
   -5.7539   28.5832    8.8593 C   0  0  0  0  0  0  0  0  0  0  0  0
   -5.0277   29.7086    8.1838 O   0  0  0  0  0  0  0  0  0  0  0  0
   -5.3586   23.6198    9.2888 H   0  0  0  0  0  0  0  0  0  0  0  0
   -8.0417   27.9248   10.5749 H   0  0  0  0  0  0  0  0  0  0  0  0
   -9.2705   29.6934   11.1928 H   0  0  0  0  0  0  0  0  0  0  0  0
  -10.4891   32.3929   11.6706 H   0  0  0  0  0  0  0  0  0  0  0  0
   -9.2518   34.8354   10.4445 H   0  0  0  0  0  0  0  0  0  0  0  0
   -6.7960   34.5785    8.7407 H   0  0  0  0  0  0  0  0  0  0  0  0
   -3.8071   29.4257    7.3592 H   0  0  0  0  0  0  0  0  0  0  0  0
  1  2  2  0
  2  3  1  0
  3  4  1  0
  3  5  1  0
  5  6  1  0
  6  7  1  0
  7  8  1  0
  8  9  2  0
  9 10  1  0
 10 11  2  0
 11 12  1  0
 12 13  2  0
 13 14  1  0
  7 15  1  0
 15 16  1  0
 15  2  1  0
 15  6  1  0
 13  8  1  0
  4 17  1  0
  6 18  1  0
  9 19  1  0
 10 20  1  0
 11 21  1  0
 12 22  1  0
 16 23  1  0
M  END
