
     RDKit          2D

 22 23  0  0  0  0  0  0  0  0999 V2000
    1.4816   25.3411    3.2624 C   0  0  0  0  0  0  0  0  0  0  0  0
    0.0578   25.3792    3.7330 C   0  0  0  0  0  0  0  0  0  0  0  0
   -1.3659   25.4172    4.2035 C   0  0  0  0  0  0  0  0  0  0  0  0
   -2.7897   25.4553    4.6741 C   0  0  0  0  0  0  0  0  0  0  0  0
   -4.2135   25.4934    5.1446 C   0  0  0  0  0  0  0  0  0  0  0  0
   -3.8373   24.6817    6.3487 C   0  0  0  0  0  0  0  0  0  0  0  0
   -5.1152   24.5084    7.1148 O   0  0  0  0  0  0  0  0  0  0  0  0
   -2.7996   23.9598    7.1561 O   0  0  0  0  0  0  0  0  0  0  0  0
   -2.4135   24.6436    5.8781 C   0  0  0  0  0  0  0  0  0  0  0  0
   -0.9408   24.3968    5.7352 O   0  0  0  0  0  0  0  0  0  0  0  0
    2.9054   25.3031    2.7919 H   0  0  0  0  0  0  0  0  0  0  0  0
    1.9536   25.4853    4.6789 H   0  0  0  0  0  0  0  0  0  0  0  0
    1.0096   25.1970    1.8459 H   0  0  0  0  0  0  0  0  0  0  0  0
    0.5258   25.2956    5.1557 H   0  0  0  0  0  0  0  0  0  0  0  0
   -0.4101   25.4628    2.3103 H   0  0  0  0  0  0  0  0  0  0  0  0
   -0.8846   24.9715    4.9371 H   0  0  0  0  0  0  0  0  0  0  0  0
   -1.7671   26.1079    2.9339 H   0  0  0  0  0  0  0  0  0  0  0  0
   -3.1659   26.2669    3.4701 H   0  0  0  0  0  0  0  0  0  0  0  0
   -4.5897   26.3050    3.9406 H   0  0  0  0  0  0  0  0  0  0  0  0
   -5.6373   25.5314    5.6152 H   0  0  0  0  0  0  0  0  0  0  0  0
   -5.1202   23.7343    8.3996 H   0  0  0  0  0  0  0  0  0  0  0  0
   -0.2090   23.6030    6.7764 H   0  0  0  0  0  0  0  0  0  0  0  0
  1  2  1  0
  2  3  1  0
  3  4  1  0
  4  5  1  0
  5  6  1  0
  6  7  1  0
  6  8  1  0
  8  9  1  0
  9 10  1  0
  9  4  1  0
  9  6  1  0
  1 11  1  0
  1 12  1  0
  1 13  1  0
  2 14  1  0
  2 15  1  0
  3 16  1  0
  3 17  1  0
  4 18  1  0
  5 19  1  0
  5 20  1  0
  7 21  1  0
 10 22  1  0
M  END
