
     RDKit          2D

 93103  0  0  0  0  0  0  0  0999 V2000
   -1.1689   20.7367    5.4596 C   0  0  0  0  0  0  0  0  0  0  0  0
   -1.7051   22.0206    6.0200 C   0  0  0  0  0  0  0  0  0  0  0  0
   -2.6741   21.1226    6.7304 C   0  0  0  0  0  0  0  0  0  0  0  0
   -2.2350   19.9716    5.8746 C   0  0  0  0  0  0  0  0  0  0  0  0
   -3.2040   19.0737    6.5850 C   0  0  0  0  0  0  0  0  0  0  0  0
   -3.6432   20.2246    7.4408 C   0  0  0  0  0  0  0  0  0  0  0  0
   -2.4440   23.1167    6.7289 C   0  0  0  0  0  0  0  0  0  0  0  0
   -2.1654   24.5125    6.6316 C   0  0  0  0  0  0  0  0  0  0  0  0
   -1.5818   25.8483    6.2784 C   0  0  0  0  0  0  0  0  0  0  0  0
   -1.7803   27.3046    6.5780 N   0  0  0  0  0  0  0  0  0  0  0  0
   -2.6681   28.2000    7.3904 O   0  0  0  0  0  0  0  0  0  0  0  0
   -3.8300   28.1155    8.3354 C   0  0  0  0  0  0  0  0  0  0  0  0
   -3.0927   29.3259    7.8444 C   0  0  0  0  0  0  0  0  0  0  0  0
   -2.0225   29.9891    7.0289 N   0  0  0  0  0  0  0  0  0  0  0  0
   -1.9258   31.4848    7.0901 C   0  0  0  0  0  0  0  0  0  0  0  0
   -0.7679   31.4489    6.1371 N   0  0  0  0  0  0  0  0  0  0  0  0
   -0.8647   29.9532    6.0759 C   0  0  0  0  0  0  0  0  0  0  0  0
    0.1155   29.2264    5.2037 C   0  0  0  0  0  0  0  0  0  0  0  0
    0.6936   27.9751    4.6120 C   0  0  0  0  0  0  0  0  0  0  0  0
    0.7371   26.4860    4.4364 C   0  0  0  0  0  0  0  0  0  0  0  0
    0.2361   25.1004    4.7172 C   0  0  0  0  0  0  0  0  0  0  0  0
    1.3270   25.6974    3.8785 C   0  0  0  0  0  0  0  0  0  0  0  0
    1.7268   24.3257    3.4218 C   0  0  0  0  0  0  0  0  0  0  0  0
    0.6358   23.7286    4.2605 C   0  0  0  0  0  0  0  0  0  0  0  0
   -0.6240   22.6501    5.1924 C   0  0  0  0  0  0  0  0  0  0  0  0
    0.3557   21.9222    4.3205 O   0  0  0  0  0  0  0  0  0  0  0  0
   -0.6947   24.1354    5.3899 N   0  0  0  0  0  0  0  0  0  0  0  0
    1.2774   29.3109    4.2587 C   0  0  0  0  0  0  0  0  0  0  0  0
    1.4824   30.7966    4.2302 C   0  0  0  0  0  0  0  0  0  0  0  0
    2.0661   32.1324    3.8769 C   0  0  0  0  0  0  0  0  0  0  0  0
    3.0739   32.9524    3.1274 N   0  0  0  0  0  0  0  0  0  0  0  0
    3.6521   31.7012    2.5356 C   0  0  0  0  0  0  0  0  0  0  0  0
    2.6442   30.8811    3.2852 C   0  0  0  0  0  0  0  0  0  0  0  0
    2.9417   29.4602    2.9077 C   0  0  0  0  0  0  0  0  0  0  0  0
    3.2393   28.0393    2.5302 Cl  0  0  0  0  0  0  0  0  0  0  0  0
   -4.9206   28.5469    9.2704 C   0  0  0  0  0  0  0  0  0  0  0  0
   -4.7221   27.0906    8.9708 N   0  0  0  0  0  0  0  0  0  0  0  0
   -4.9271   25.6049    8.9993 C   0  0  0  0  0  0  0  0  0  0  0  0
   -5.9639   26.1997    9.9056 C   0  0  0  0  0  0  0  0  0  0  0  0
   -7.0007   26.7946   10.8118 C   0  0  0  0  0  0  0  0  0  0  0  0
   -8.0375   27.3894   11.7180 N   0  0  0  0  0  2  0  0  0  0  0  0
   -7.5329   25.4228   11.1032 N   0  0  0  0  0  2  0  0  0  0  0  0
   -4.3490   24.3537    8.4076 O   0  0  0  0  0  0  0  0  0  0  0  0
   -3.2584   23.9223    7.4726 C   0  0  0  0  0  0  0  0  0  0  0  0
   -0.6327   19.4528    4.8992 H   0  0  0  0  0  0  0  0  0  0  0  0
   -1.6298   20.1754    5.7881 H   0  0  0  0  0  0  0  0  0  0  0  0
   -0.0421   21.1716    4.5702 H   0  0  0  0  0  0  0  0  0  0  0  0
   -3.2282   22.1555    7.6664 H   0  0  0  0  0  0  0  0  0  0  0  0
   -1.7958   18.8206    5.0188 H   0  0  0  0  0  0  0  0  0  0  0  0
   -1.1885   20.5645    4.9783 H   0  0  0  0  0  0  0  0  0  0  0  0
   -4.1730   18.1757    7.2954 H   0  0  0  0  0  0  0  0  0  0  0  0
   -2.7647   17.9227    5.7291 H   0  0  0  0  0  0  0  0  0  0  0  0
   -4.0824   21.3756    8.2966 H   0  0  0  0  0  0  0  0  0  0  0  0
   -4.6122   19.3267    8.1512 H   0  0  0  0  0  0  0  0  0  0  0  0
   -3.3535   22.1179    7.3811 H   0  0  0  0  0  0  0  0  0  0  0  0
   -3.5011   23.6556    7.6466 H   0  0  0  0  0  0  0  0  0  0  0  0
   -0.6054   25.1134    5.4086 H   0  0  0  0  0  0  0  0  0  0  0  0
   -0.5420   26.5942    5.4957 H   0  0  0  0  0  0  0  0  0  0  0  0
   -0.7095   27.9660    5.7619 H   0  0  0  0  0  0  0  0  0  0  0  0
   -4.1402   29.8918    8.7567 H   0  0  0  0  0  0  0  0  0  0  0  0
   -3.2774   30.7863    8.1331 H   0  0  0  0  0  0  0  0  0  0  0  0
   -1.8289   32.9804    7.1512 H   0  0  0  0  0  0  0  0  0  0  0  0
   -3.0631   31.7028    8.0434 H   0  0  0  0  0  0  0  0  0  0  0  0
    0.1192   32.4810    5.5065 H   0  0  0  0  0  0  0  0  0  0  0  0
    0.1055   30.8490    5.3644 H   0  0  0  0  0  0  0  0  0  0  0  0
   -0.6561   28.0510    5.7262 H   0  0  0  0  0  0  0  0  0  0  0  0
    1.8468   27.8810    3.6574 H   0  0  0  0  0  0  0  0  0  0  0  0
    1.8545   26.9809    3.5665 H   0  0  0  0  0  0  0  0  0  0  0  0
    1.7191   25.7627    3.5631 H   0  0  0  0  0  0  0  0  0  0  0  0
    2.4179   26.2946    3.0399 H   0  0  0  0  0  0  0  0  0  0  0  0
    1.2031   27.1729    4.1188 H   0  0  0  0  0  0  0  0  0  0  0  0
    2.1265   22.9541    2.9651 H   0  0  0  0  0  0  0  0  0  0  0  0
    2.8177   24.9229    2.5832 H   0  0  0  0  0  0  0  0  0  0  0  0
    1.0355   22.3569    3.8038 H   0  0  0  0  0  0  0  0  0  0  0  0
    0.3047   20.4264    4.2218 H   0  0  0  0  0  0  0  0  0  0  0  0
    2.3111   28.7081    3.3543 H   0  0  0  0  0  0  0  0  0  0  0  0
    0.4487   31.3993    5.1346 H   0  0  0  0  0  0  0  0  0  0  0  0
    1.2469   33.1288    4.6424 H   0  0  0  0  0  0  0  0  0  0  0  0
    3.3778   34.4171    3.0157 H   0  0  0  0  0  0  0  0  0  0  0  0
    4.3486   30.5592    1.8570 H   0  0  0  0  0  0  0  0  0  0  0  0
    4.6599   32.5212    1.7861 H   0  0  0  0  0  0  0  0  0  0  0  0
    4.0924   29.7518    1.9907 H   0  0  0  0  0  0  0  0  0  0  0  0
    2.0003   28.5137    3.5916 H   0  0  0  0  0  0  0  0  0  0  0  0
   -4.8566   30.0430    9.3585 H   0  0  0  0  0  0  0  0  0  0  0  0
   -6.0735   28.6450   10.2252 H   0  0  0  0  0  0  0  0  0  0  0  0
   -5.7268   24.4605    9.5477 H   0  0  0  0  0  0  0  0  0  0  0  0
   -6.4992   24.8284   10.1933 H   0  0  0  0  0  0  0  0  0  0  0  0
   -5.4286   27.5711    9.6178 H   0  0  0  0  0  0  0  0  0  0  0  0
   -6.5988   28.2286   10.6330 H   0  0  0  0  0  0  0  0  0  0  0  0
   -9.0191   26.4990   12.4208 H   0  0  0  0  0  0  0  0  0  0  0  0
   -8.6969   25.2520   12.0338 H   0  0  0  0  0  0  0  0  0  0  0  0
   -3.9548   22.6736    7.9264 H   0  0  0  0  0  0  0  0  0  0  0  0
   -2.8137   22.5765    6.9814 H   0  0  0  0  0  0  0  0  0  0  0  0
  1  2  1  0
  2  3  1  0
  3  4  1  0
  4  5  1  0
  5  6  1  0
  2  7  1  0
  7  8  1  0
  8  9  1  0
  9 10  1  0
 10 11  1  0
 11 12  1  0
 12 13  1  0
 13 14  1  0
 14 15  1  0
 15 16  1  0
 16 17  1  0
 17 18  1  0
 18 19  1  0
 19 20  1  0
 20 21  1  0
 21 22  1  0
 22 23  1  0
 23 24  1  0
 24 25  1  0
 25 26  1  0
 25 27  1  0
 19 28  1  0
 28 29  1  0
 29 30  1  0
 30 31  1  0
 31 32  1  0
 32 33  1  0
 33 34  1  0
 34 35  1  0
 12 36  1  0
 36 37  1  0
 37 38  1  0
 38 39  1  0
 39 40  1  0
 40 41  1  0
 40 42  1  0
 38 43  1  0
 43 44  1  0
 25  2  1  0
 33 29  1  0
  6  3  1  0
 27  8  1  0
 33 30  1  0
 44  8  1  0
 37 12  1  0
 17 14  1  0
 28 18  1  0
 24 21  1  0
 27 21  1  0
  1 45  1  0
  1 46  1  0
  1 47  1  0
  3 48  1  0
  4 49  1  0
  4 50  1  0
  5 51  1  0
  5 52  1  0
  6 53  1  0
  6 54  1  0
  7 55  1  0
  7 56  1  0
  9 57  1  0
  9 58  1  0
 10 59  1  0
 13 60  1  0
 13 61  1  0
 15 62  1  0
 15 63  1  0
 16 64  1  0
 17 65  1  0
 18 66  1  0
 19 67  1  0
 20 68  1  0
 20 69  1  0
 22 70  1  0
 22 71  1  0
 23 72  1  0
 23 73  1  0
 24 74  1  0
 26 75  1  0
 28 76  1  0
 29 77  1  0
 30 78  1  0
 31 79  1  0
 32 80  1  0
 32 81  1  0
 34 82  1  0
 34 83  1  0
 36 84  1  0
 36 85  1  0
 38 86  1  0
 39 87  1  0
 39 88  1  0
 40 89  1  0
 41 90  1  0
 42 91  1  0
 44 92  1  0
 44 93  1  0
M  RAD  2  41   2  42   2
M  END
