
     RDKit          2D

 61 66  0  0  0  0  0  0  0  0999 V2000
   -4.3470   29.5670    5.9609 C   0  0  0  0  0  0  0  0  0  0  0  0
   -5.3178   28.4526    6.2173 C   0  0  0  0  0  0  0  0  0  0  0  0
   -4.6232   27.3322    5.5017 C   0  0  0  0  0  0  0  0  0  0  0  0
   -3.9285   26.2118    4.7860 C   0  0  0  0  0  0  0  0  0  0  0  0
   -2.6673   27.0225    4.7409 C   0  0  0  0  0  0  0  0  0  0  0  0
   -1.4061   27.8333    4.6958 C   0  0  0  0  0  0  0  0  0  0  0  0
   -0.6156   29.1070    4.7496 C   0  0  0  0  0  0  0  0  0  0  0  0
    0.8666   29.2943    4.6145 C   0  0  0  0  0  0  0  0  0  0  0  0
    1.9241   28.2542    4.3921 C   0  0  0  0  0  0  0  0  0  0  0  0
    1.7610   26.7699    4.2499 C   0  0  0  0  0  0  0  0  0  0  0  0
    3.2431   26.9572    4.1148 C   0  0  0  0  0  0  0  0  0  0  0  0
    2.2573   25.3689    4.0476 C   0  0  0  0  0  0  0  0  0  0  0  0
    2.7537   23.9679    3.8453 C   0  0  0  0  0  0  0  0  0  0  0  0
    4.2255   24.2288    3.7191 C   0  0  0  0  0  0  0  0  0  0  0  0
    5.6223   23.7204    3.5183 C   0  0  0  0  0  0  0  0  0  0  0  0
    6.5700   22.5789    3.2965 C   0  0  0  0  0  0  0  0  0  0  0  0
    6.0459   21.1767    3.2010 C   0  0  0  0  0  0  0  0  0  0  0  0
    5.0982   22.3182    3.4227 C   0  0  0  0  0  0  0  0  0  0  0  0
    3.7014   22.8266    3.6236 Al  0  0  0  0  0  3  0  0  0  0  0  0
    0.4998   25.9591    4.2950 C   0  0  0  0  0  0  0  0  0  0  0  0
   -0.9097   26.4325    4.4935 C   0  0  0  0  0  0  0  0  0  0  0  0
   -3.2339   25.0914    4.0703 C   0  0  0  0  0  0  0  0  0  0  0  0
   -3.8463   23.7223    4.0472 O   0  0  0  0  0  0  0  0  0  0  0  0
   -1.9268   25.3401    3.3777 O   0  0  0  0  0  0  0  0  0  0  0  0
   -6.3496   29.1860    7.0221 C   0  0  0  0  0  0  0  0  0  0  0  0
   -6.5298   27.7273    6.7223 C   0  0  0  0  0  0  0  0  0  0  0  0
   -3.3763   30.6814    5.7045 H   0  0  0  0  0  0  0  0  0  0  0  0
   -4.6768   30.1969    6.3214 H   0  0  0  0  0  0  0  0  0  0  0  0
   -4.8156   30.0685    6.3665 H   0  0  0  0  0  0  0  0  0  0  0  0
   -3.4683   28.2895    5.5073 H   0  0  0  0  0  0  0  0  0  0  0  0
   -5.7780   26.3750    5.4960 H   0  0  0  0  0  0  0  0  0  0  0  0
   -5.1897   25.4010    4.8311 H   0  0  0  0  0  0  0  0  0  0  0  0
   -1.7143   25.8926    4.9955 H   0  0  0  0  0  0  0  0  0  0  0  0
   -3.3129   28.3503    4.4753 H   0  0  0  0  0  0  0  0  0  0  0  0
   -2.5841   28.7354    4.9159 H   0  0  0  0  0  0  0  0  0  0  0  0
   -1.9550   29.7492    4.9588 H   0  0  0  0  0  0  0  0  0  0  0  0
   -0.6344   30.5982    4.9116 H   0  0  0  0  0  0  0  0  0  0  0  0
    0.5454   30.7472    4.8040 H   0  0  0  0  0  0  0  0  0  0  0  0
    2.0212   30.2516    4.5963 H   0  0  0  0  0  0  0  0  0  0  0  0
    2.8630   29.4237    4.4192 H   0  0  0  0  0  0  0  0  0  0  0  0
    3.3827   27.9568    4.2074 H   0  0  0  0  0  0  0  0  0  0  0  0
    4.7252   27.1444    3.9796 H   0  0  0  0  0  0  0  0  0  0  0  0
    3.5936   25.5110    3.9256 H   0  0  0  0  0  0  0  0  0  0  0  0
    3.2539   28.4489    4.2710 H   0  0  0  0  0  0  0  0  0  0  0  0
    1.0233   24.8315    3.3854 H   0  0  0  0  0  0  0  0  0  0  0  0
    3.5616   25.7382    4.6899 H   0  0  0  0  0  0  0  0  0  0  0  0
    1.4543   23.2206    3.9012 H   0  0  0  0  0  0  0  0  0  0  0  0
    4.5501   25.6880    3.8417 H   0  0  0  0  0  0  0  0  0  0  0  0
    6.4900   24.9432    3.5586 H   0  0  0  0  0  0  0  0  0  0  0  0
    8.0417   22.8398    3.1704 H   0  0  0  0  0  0  0  0  0  0  0  0
    7.3305   20.4325    2.9866 H   0  0  0  0  0  0  0  0  0  0  0  0
    5.0756   20.0330    3.1799 H   0  0  0  0  0  0  0  0  0  0  0  0
    1.4213   24.7964    4.0738 H   0  0  0  0  0  0  0  0  0  0  0  0
   -0.1306   24.6004    4.2153 H   0  0  0  0  0  0  0  0  0  0  0  0
   -0.8910   24.9414    4.3315 H   0  0  0  0  0  0  0  0  0  0  0  0
   -2.3599   26.0662    4.6061 H   0  0  0  0  0  0  0  0  0  0  0  0
   -1.2321   24.2197    2.6620 H   0  0  0  0  0  0  0  0  0  0  0  0
   -6.0350   30.6362    7.2412 H   0  0  0  0  0  0  0  0  0  0  0  0
   -7.5941   29.4439    7.8189 H   0  0  0  0  0  0  0  0  0  0  0  0
   -7.8368   27.4786    7.4150 H   0  0  0  0  0  0  0  0  0  0  0  0
   -6.4140   26.3050    6.2602 H   0  0  0  0  0  0  0  0  0  0  0  0
  1  2  1  0
  2  3  1  0
  3  4  1  0
  4  5  1  0
  5  6  1  0
  6  7  1  0
  7  8  1  0
  8  9  1  0
  9 10  1  0
 10 11  1  0
 10 12  1  0
 12 13  1  0
 13 14  1  0
 14 15  1  0
 15 16  1  0
 16 17  1  0
 17 18  1  0
 18 19  1  0
 10 20  1  0
 20 21  1  0
  4 22  1  0
 22 23  2  0
 22 24  1  0
  2 25  1  0
 25 26  1  0
 26  2  1  0
 21  6  1  0
 19 13  1  0
 19 14  1  0
 18 15  1  0
 18 16  1  0
  1 27  1  0
  1 28  1  0
  1 29  1  0
  3 30  1  0
  3 31  1  0
  4 32  1  0
  5 33  1  0
  5 34  1  0
  6 35  1  0
  7 36  1  0
  7 37  1  0
  8 38  1  0
  8 39  1  0
  9 40  1  0
  9 41  1  0
 11 42  1  0
 11 43  1  0
 11 44  1  0
 12 45  1  0
 12 46  1  0
 13 47  1  0
 14 48  1  0
 15 49  1  0
 16 50  1  0
 17 51  1  0
 17 52  1  0
 20 53  1  0
 20 54  1  0
 21 55  1  0
 21 56  1  0
 24 57  1  0
 25 58  1  0
 25 59  1  0
 26 60  1  0
 26 61  1  0
M  END
