
     RDKit          2D

107118  0  0  0  0  0  0  0  0999 V2000
   -0.4176   26.6258    5.5338 C   0  0  0  0  0  0  0  0  0  0  0  0
   -0.3529   26.7250    7.0291 C   0  0  0  0  0  0  0  0  0  0  0  0
   -0.2883   26.8242    8.5244 C   0  0  0  0  0  0  0  0  0  0  0  0
   -0.2238   26.9235   10.0197 C   0  0  0  0  0  0  0  0  0  0  0  0
   -0.1592   27.0228   11.5151 C   0  0  0  0  0  0  0  0  0  0  0  0
    0.2851   26.7754   12.9262 C   0  0  0  0  0  0  0  0  0  0  0  0
   -0.3863   27.4916   14.0603 C   0  0  0  0  0  0  0  0  0  0  0  0
   -1.5021   28.4551   13.7833 C   0  0  0  0  0  0  0  0  0  0  0  0
   -1.9464   28.7025   12.3722 C   0  0  0  0  0  0  0  0  0  0  0  0
   -3.0396   29.7005   12.6144 C   0  0  0  0  0  0  0  0  0  0  0  0
   -4.0432   30.5133   11.8515 C   0  0  0  0  0  0  0  0  0  0  0  0
   -4.4875   30.7607   10.4403 C   0  0  0  0  0  0  0  0  0  0  0  0
   -4.1647   30.3268    9.0412 C   0  0  0  0  0  0  0  0  0  0  0  0
   -3.2257   29.4147    8.3088 C   0  0  0  0  0  0  0  0  0  0  0  0
   -2.1099   28.4511    8.5859 C   0  0  0  0  0  0  0  0  0  0  0  0
   -1.3395   27.8870    9.7427 C   0  0  0  0  0  0  0  0  0  0  0  0
   -1.2749   27.9863   11.2380 C   0  0  0  0  0  0  0  0  0  0  0  0
   -1.5524   28.4022   12.8504 C   0  0  0  0  0  0  0  0  0  0  0  0
   -2.2692   29.1363   13.7712 C   0  0  0  0  0  0  0  0  0  0  0  0
   -2.1354   28.3172    7.0920 C   0  0  0  0  0  0  0  0  0  0  0  0
   -1.3177   27.4905    6.1444 C   0  0  0  0  0  0  0  0  0  0  0  0
   -1.5761   27.5657    4.6688 C   0  0  0  0  0  0  0  0  0  0  0  0
   -2.6521   28.4676    4.1408 C   0  0  0  0  0  0  0  0  0  0  0  0
   -3.4697   29.2943    5.0884 C   0  0  0  0  0  0  0  0  0  0  0  0
   -3.2113   29.2191    6.5641 C   0  0  0  0  0  0  0  0  0  0  0  0
   -4.2292   30.2275    7.5459 C   0  0  0  0  0  0  0  0  0  0  0  0
   -4.8460   30.6395    6.2420 Mg  0  0  0  0  0  2  0  0  0  0  0  0
   -0.5001   26.6638    5.1967 C   0  0  0  0  0  0  0  0  0  0  0  0
    0.0048   26.0799    3.9106 C   0  0  0  0  0  0  0  0  0  0  0  0
    0.5096   25.4960    2.6245 C   0  0  0  0  0  0  0  0  0  0  0  0
    1.0145   24.9121    1.3384 C   0  0  0  0  0  0  0  0  0  0  0  0
    1.8321   24.0854    0.3907 C   0  0  0  0  0  0  0  0  0  0  0  0
    2.0904   24.0102    1.8663 C   0  0  0  0  0  0  0  0  0  0  0  0
    3.2120   23.0143    1.8840 C   0  0  0  0  0  0  0  0  0  0  0  0
    2.8593   23.1762    0.4350 C   0  0  0  0  0  0  0  0  0  0  0  0
    3.3642   22.5923   -0.8511 C   0  0  0  0  0  0  0  0  0  0  0  0
    4.4308   21.6047   -1.2211 C   0  0  0  0  0  0  0  0  0  0  0  0
    5.4344   20.7918   -0.4582 C   0  0  0  0  0  0  0  0  0  0  0  0
    6.5344   19.8555   -0.0540 C   0  0  0  0  0  0  0  0  0  0  0  0
    6.1082   20.4732    2.2214 C   0  0  0  0  0  0  0  0  0  0  0  0
    5.2923   21.2986    3.1717 C   0  0  0  0  0  0  0  0  0  0  0  0
    4.2156   22.2015    2.6469 C   0  0  0  0  0  0  0  0  0  0  0  0
    5.2822   21.2138    2.2769 C   0  0  0  0  0  0  0  0  0  0  0  0
    5.3468   21.3131    3.7723 O   0  0  0  0  0  0  0  0  0  0  0  0
    5.7870   20.6299    0.9908 C   0  0  0  0  0  0  0  0  0  0  0  0
   -0.2089   26.2885    4.0872 H   0  0  0  0  0  0  0  0  0  0  0  0
    0.7035   25.6494    5.7336 H   0  0  0  0  0  0  0  0  0  0  0  0
   -1.5386   27.6021    5.3340 H   0  0  0  0  0  0  0  0  0  0  0  0
   -1.4742   27.7213    7.0114 H   0  0  0  0  0  0  0  0  0  0  0  0
    0.7682   25.7287    7.0468 H   0  0  0  0  0  0  0  0  0  0  0  0
   -1.4118   27.8181    8.5070 H   0  0  0  0  0  0  0  0  0  0  0  0
    0.8350   25.8305    8.5418 H   0  0  0  0  0  0  0  0  0  0  0  0
   -1.3268   27.8666    9.6407 H   0  0  0  0  0  0  0  0  0  0  0  0
    0.8970   25.9267   10.0374 H   0  0  0  0  0  0  0  0  0  0  0  0
    0.9341   26.0247   11.2728 H   0  0  0  0  0  0  0  0  0  0  0  0
    1.2241   25.8633   12.1939 H   0  0  0  0  0  0  0  0  0  0  0  0
    1.0555   26.2113   14.0830 H   0  0  0  0  0  0  0  0  0  0  0  0
    0.6172   26.6787   14.8233 H   0  0  0  0  0  0  0  0  0  0  0  0
   -0.5757   27.8123   15.5135 H   0  0  0  0  0  0  0  0  0  0  0  0
   -1.3012   28.4322   15.2696 H   0  0  0  0  0  0  0  0  0  0  0  0
   -2.5003   29.4052   14.3755 H   0  0  0  0  0  0  0  0  0  0  0  0
   -3.5963   30.3261   13.8589 H   0  0  0  0  0  0  0  0  0  0  0  0
   -4.3724   30.9524   13.2475 H   0  0  0  0  0  0  0  0  0  0  0  0
   -5.1350   31.5108   12.1024 H   0  0  0  0  0  0  0  0  0  0  0  0
   -5.4301   31.6752   11.1650 H   0  0  0  0  0  0  0  0  0  0  0  0
   -5.4941   31.5769    9.6849 H   0  0  0  0  0  0  0  0  0  0  0  0
   -5.2561   31.2501    8.5871 H   0  0  0  0  0  0  0  0  0  0  0  0
   -2.6520   28.7754    7.0790 H   0  0  0  0  0  0  0  0  0  0  0  0
   -1.8629   28.0813    7.1533 H   0  0  0  0  0  0  0  0  0  0  0  0
   -1.0292   27.4637    8.3375 H   0  0  0  0  0  0  0  0  0  0  0  0
   -0.2162   26.8968    9.8298 H   0  0  0  0  0  0  0  0  0  0  0  0
   -0.9826   28.1084   14.8845 H   0  0  0  0  0  0  0  0  0  0  0  0
   -0.0824   27.1512   13.3929 H   0  0  0  0  0  0  0  0  0  0  0  0
   -2.1461   29.1834   15.2654 H   0  0  0  0  0  0  0  0  0  0  0  0
   -1.1596   27.5361    7.9213 H   0  0  0  0  0  0  0  0  0  0  0  0
   -0.3054   26.6675    6.8847 H   0  0  0  0  0  0  0  0  0  0  0  0
   -1.7654   27.8864    6.1218 H   0  0  0  0  0  0  0  0  0  0  0  0
   -2.9105   28.5428    2.6651 H   0  0  0  0  0  0  0  0  0  0  0  0
   -4.5457   30.1962    4.5604 H   0  0  0  0  0  0  0  0  0  0  0  0
   -4.2319   30.0518    5.8464 H   0  0  0  0  0  0  0  0  0  0  0  0
   -5.4627   31.0515    4.9382 H   0  0  0  0  0  0  0  0  0  0  0  0
    0.4758   25.8826    6.0260 H   0  0  0  0  0  0  0  0  0  0  0  0
    1.0165   25.2762    4.6726 H   0  0  0  0  0  0  0  0  0  0  0  0
   -1.0069   26.8836    3.1487 H   0  0  0  0  0  0  0  0  0  0  0  0
    0.0133   26.7014    1.8823 H   0  0  0  0  0  0  0  0  0  0  0  0
    0.9407   24.3708    3.5177 H   0  0  0  0  0  0  0  0  0  0  0  0
    0.1138   25.6112    0.3635 H   0  0  0  0  0  0  0  0  0  0  0  0
    1.2153   24.4974   -0.9132 H   0  0  0  0  0  0  0  0  0  0  0  0
    2.7257   23.2043   -0.4309 H   0  0  0  0  0  0  0  0  0  0  0  0
    2.0963   24.1614    3.3586 H   0  0  0  0  0  0  0  0  0  0  0  0
    2.9841   23.3679    3.3237 H   0  0  0  0  0  0  0  0  0  0  0  0
    1.9358   23.8999   -0.4994 H   0  0  0  0  0  0  0  0  0  0  0  0
    1.7407   24.1750    0.4694 H   0  0  0  0  0  0  0  0  0  0  0  0
    3.1634   22.6152   -2.3374 H   0  0  0  0  0  0  0  0  0  0  0  0
    2.3001   23.4785   -1.4277 H   0  0  0  0  0  0  0  0  0  0  0  0
    5.1782   20.8303   -2.2659 H   0  0  0  0  0  0  0  0  0  0  0  0
    3.9331   21.9024   -2.6044 H   0  0  0  0  0  0  0  0  0  0  0  0
    5.8039   20.3190   -1.8329 H   0  0  0  0  0  0  0  0  0  0  0  0
    7.6011   18.8679   -0.4241 H   0  0  0  0  0  0  0  0  0  0  0  0
    6.7271   20.0591    3.5235 H   0  0  0  0  0  0  0  0  0  0  0  0
    7.1858   19.4808    1.8989 H   0  0  0  0  0  0  0  0  0  0  0  0
    4.6711   21.9755    4.3574 H   0  0  0  0  0  0  0  0  0  0  0  0
    6.1946   20.5978    4.1438 H   0  0  0  0  0  0  0  0  0  0  0  0
    3.9973   22.5470    4.0902 H   0  0  0  0  0  0  0  0  0  0  0  0
    6.2944   20.3909    3.0174 H   0  0  0  0  0  0  0  0  0  0  0  0
    4.5850   22.0984    4.7983 H   0  0  0  0  0  0  0  0  0  0  0  0
    6.7863   19.8222    1.7649 H   0  0  0  0  0  0  0  0  0  0  0  0
  1  2  1  0
  2  3  1  0
  3  4  1  0
  4  5  1  0
  5  6  1  0
  6  7  1  0
  7  8  1  0
  8  9  1  0
  9 10  1  0
 10 11  1  0
 11 12  1  0
 12 13  1  0
 13 14  1  0
 14 15  1  0
 15 16  1  0
 16 17  1  0
 17 18  1  0
 18 19  1  0
 15 20  1  0
 20 21  1  0
 21 22  1  0
 22 23  1  0
 23 24  2  0
 24 25  1  0
 25 26  1  0
 26 27  1  0
 22 28  1  0
 28 29  1  0
 29 30  1  0
 30 31  1  0
 31 32  1  0
 32 33  1  0
 33 34  1  0
 34 35  1  0
 35 36  1  0
 36 37  1  0
 37 38  1  0
 38 39  1  0
 39 40  1  0
 40 41  1  0
 41 42  1  0
 42 43  1  0
 43 44  1  0
 43 45  1  0
 17  5  1  0
 25 20  1  0
 33 31  1  0
 42 34  1  0
 17  9  1  0
 28 21  1  0
 45 38  1  0
 19  9  1  0
 45 39  1  0
 19 10  1  0
 26 13  1  0
 26 14  1  0
  1 46  1  0
  1 47  1  0
  1 48  1  0
  2 49  1  0
  2 50  1  0
  3 51  1  0
  3 52  1  0
  4 53  1  0
  4 54  1  0
  5 55  1  0
  6 56  1  0
  6 57  1  0
  7 58  1  0
  7 59  1  0
  8 60  1  0
  8 61  1  0
 10 62  1  0
 11 63  1  0
 11 64  1  0
 12 65  1  0
 12 66  1  0
 13 67  1  0
 14 68  1  0
 15 69  1  0
 16 70  1  0
 16 71  1  0
 18 72  1  0
 18 73  1  0
 19 74  1  0
 20 75  1  0
 21 76  1  0
 22 77  1  0
 23 78  1  0
 24 79  1  0
 25 80  1  0
 27 81  1  0
 28 82  1  0
 29 83  1  0
 29 84  1  0
 30 85  1  0
 30 86  1  0
 31 87  1  0
 32 88  1  0
 32 89  1  0
 33 90  1  0
 34 91  1  0
 35 92  1  0
 35 93  1  0
 36 94  1  0
 36 95  1  0
 37 96  1  0
 37 97  1  0
 38 98  1  0
 39 99  1  0
 40100  1  0
 40101  1  0
 41102  1  0
 41103  1  0
 42104  1  0
 43105  1  0
 44106  1  0
 45107  1  0
M  END
