
     RDKit          2D

 50 53  0  0  0  0  0  0  0  0999 V2000
   16.8683  -27.3598  -14.7509 C   0  0  0  0  0  0  0  0  0  0  0  0
   16.9276  -26.0300  -15.4421 C   0  0  0  0  0  0  0  0  0  0  0  0
   17.0088  -25.3615  -16.7825 C   0  0  0  0  0  0  0  0  0  0  0  0
   17.0681  -24.0315  -17.4737 C   0  0  0  0  0  0  0  0  0  0  0  0
   17.0829  -22.5481  -17.2518 C   0  0  0  0  0  0  0  0  0  0  0  0
   17.0475  -21.4778  -16.2014 C   0  0  0  0  0  0  0  0  0  0  0  0
   16.9754  -21.2294  -14.7239 C   0  0  0  0  0  0  0  0  0  0  0  0
   16.8942  -21.8979  -13.3836 C   0  0  0  0  0  0  0  0  0  0  0  0
   16.9090  -20.4145  -13.1615 C   0  0  0  0  0  0  0  0  0  0  0  0
   16.9238  -18.9310  -12.9396 C   0  0  0  0  0  0  0  0  0  0  0  0
   17.0057  -18.4560  -14.3600 C   0  0  0  0  0  0  0  0  0  0  0  0
   16.9101  -17.6126  -12.2244 C   0  0  0  0  0  0  0  0  0  0  0  0
   16.8470  -18.8910  -11.4421 O   0  0  0  0  0  0  0  0  0  0  0  0
   16.8349  -23.2278  -12.6923 C   0  0  0  0  0  0  0  0  0  0  0  0
   16.8201  -24.7113  -12.9143 O   0  0  0  0  0  0  0  0  0  0  0  0
   16.8555  -25.7816  -13.9646 C   0  0  0  0  0  0  0  0  0  0  0  0
   16.7530  -23.7523  -11.2894 C   0  0  0  0  0  0  0  0  0  0  0  0
   16.7101  -22.7977  -10.1331 C   0  0  0  0  0  0  0  0  0  0  0  0
   16.6339  -23.7711   -8.9944 C   0  0  0  0  0  0  0  0  0  0  0  0
   16.7920  -22.2732  -11.5361 C   0  0  0  0  0  0  0  0  0  0  0  0
   16.8089  -28.6897  -14.0596 H   0  0  0  0  0  0  0  0  0  0  0  0
   16.9190  -27.9837  -15.9470 H   0  0  0  0  0  0  0  0  0  0  0  0
   16.8051  -26.8339  -13.3475 H   0  0  0  0  0  0  0  0  0  0  0  0
   16.9511  -27.1013  -16.2632 H   0  0  0  0  0  0  0  0  0  0  0  0
   17.0039  -26.8069  -17.1834 H   0  0  0  0  0  0  0  0  0  0  0  0
   17.0756  -25.7882  -18.2189 H   0  0  0  0  0  0  0  0  0  0  0  0
   17.1123  -24.9658  -18.6464 H   0  0  0  0  0  0  0  0  0  0  0  0
   17.1500  -23.5317  -18.8856 H   0  0  0  0  0  0  0  0  0  0  0  0
   17.1592  -22.6144  -18.7483 H   0  0  0  0  0  0  0  0  0  0  0  0
   17.1487  -21.3127  -18.0999 H   0  0  0  0  0  0  0  0  0  0  0  0
   17.1268  -20.6507  -17.4503 H   0  0  0  0  0  0  0  0  0  0  0  0
   17.0620  -20.5926  -16.1780 H   0  0  0  0  0  0  0  0  0  0  0  0
   17.0104  -20.5729  -15.1746 H   0  0  0  0  0  0  0  0  0  0  0  0
   16.9590  -19.9368  -13.9632 H   0  0  0  0  0  0  0  0  0  0  0  0
   16.8510  -21.2807  -12.3379 H   0  0  0  0  0  0  0  0  0  0  0  0
   16.8495  -20.4456  -11.9484 H   0  0  0  0  0  0  0  0  0  0  0  0
   16.9773  -20.2157  -14.4951 H   0  0  0  0  0  0  0  0  0  0  0  0
   17.0876  -17.9809  -15.7804 H   0  0  0  0  0  0  0  0  0  0  0  0
   17.7029  -17.1580  -14.0787 H   0  0  0  0  0  0  0  0  0  0  0  0
   16.3537  -19.5533  -15.1480 H   0  0  0  0  0  0  0  0  0  0  0  0
   16.9834  -16.5435  -13.2739 H   0  0  0  0  0  0  0  0  0  0  0  0
   16.8697  -16.6183  -11.1020 H   0  0  0  0  0  0  0  0  0  0  0  0
   16.7736  -26.2813  -12.5526 H   0  0  0  0  0  0  0  0  0  0  0  0
   16.8217  -27.2743  -13.8214 H   0  0  0  0  0  0  0  0  0  0  0  0
   16.7141  -25.2314  -11.0426 H   0  0  0  0  0  0  0  0  0  0  0  0
   16.6936  -21.5050   -9.3724 H   0  0  0  0  0  0  0  0  0  0  0  0
   16.5578  -24.7444   -7.8557 H   0  0  0  0  0  0  0  0  0  0  0  0
   16.6002  -22.6300   -8.0213 H   0  0  0  0  0  0  0  0  0  0  0  0
   16.6677  -24.9120   -9.9674 H   0  0  0  0  0  0  0  0  0  0  0  0
   16.8123  -20.7780  -11.4179 H   0  0  0  0  0  0  0  0  0  0  0  0
  1  2  1  0
  2  3  1  0
  3  4  1  0
  4  5  1  0
  5  6  1  0
  6  7  1  0
  7  8  1  0
  8  9  1  0
  9 10  1  0
 10 11  1  0
 10 12  1  0
 12 13  1  0
  8 14  1  0
 14 15  1  0
 15 16  1  0
 14 17  1  0
 17 18  1  0
 18 19  1  0
 18 20  1  0
 16  2  1  0
 20 17  1  0
 13 10  1  0
 20 14  1  0
  1 21  1  0
  1 22  1  0
  1 23  1  0
  2 24  1  0
  3 25  1  0
  3 26  1  0
  4 27  1  0
  4 28  1  0
  5 29  1  0
  5 30  1  0
  6 31  1  0
  6 32  1  0
  7 33  1  0
  7 34  1  0
  8 35  1  0
  9 36  1  0
  9 37  1  0
 11 38  1  0
 11 39  1  0
 11 40  1  0
 12 41  1  0
 12 42  1  0
 16 43  1  0
 16 44  1  0
 17 45  1  0
 18 46  1  0
 19 47  1  0
 19 48  1  0
 19 49  1  0
 20 50  1  0
M  END
