
     RDKit          2D

 47 49  0  0  0  0  0  0  0  0999 V2000
    6.5290   24.5404    0.1713 C   0  0  0  0  0  0  0  0  0  0  0  0
    5.8187   25.2094    1.3104 C   0  0  0  0  0  0  0  0  0  0  0  0
    5.1083   25.8785    2.4496 C   0  0  0  0  0  0  0  0  0  0  0  0
    4.3980   26.5476    3.5888 C   0  0  0  0  0  0  0  0  0  0  0  0
    3.6877   27.2167    4.7280 C   0  0  0  0  0  0  0  0  0  0  0  0
    2.9774   27.8858    5.8673 C   0  0  0  0  0  0  0  0  0  0  0  0
    1.5782   27.9042    5.3270 C   0  0  0  0  0  0  0  0  0  0  0  0
    0.1790   27.9225    4.7867 C   0  0  0  0  0  0  0  0  0  0  0  0
   -1.2202   27.9409    4.2464 C   0  0  0  0  0  0  0  0  0  0  0  0
   -2.6195   27.9593    3.7061 C   0  0  0  0  0  0  0  0  0  0  0  0
    4.1299   28.0998    6.8031 C   0  0  0  0  0  0  0  0  0  0  0  0
    4.6658   28.6059    8.1095 C   0  0  0  0  0  0  0  0  0  0  0  0
    3.2889   29.0546    8.5004 C   0  0  0  0  0  0  0  0  0  0  0  0
    1.9120   29.5033    8.8914 C   0  0  0  0  0  0  0  0  0  0  0  0
    0.8203   30.2391    9.6103 C   0  0  0  0  0  0  0  0  0  0  0  0
    2.2551   30.4857    9.9717 C   0  0  0  0  0  0  0  0  0  0  0  0
    2.7530   28.5485    7.1941 C   0  0  0  0  0  0  0  0  0  0  0  0
    7.2393   23.8713   -0.9680 H   0  0  0  0  0  0  0  0  0  0  0  0
    7.8257   24.6457    0.9178 H   0  0  0  0  0  0  0  0  0  0  0  0
    5.2323   24.4350   -0.5754 H   0  0  0  0  0  0  0  0  0  0  0  0
    7.1141   25.3083    2.0601 H   0  0  0  0  0  0  0  0  0  0  0  0
    4.5232   25.1105    0.5608 H   0  0  0  0  0  0  0  0  0  0  0  0
    6.4214   26.3793    2.9742 H   0  0  0  0  0  0  0  0  0  0  0  0
    3.7953   25.3778    1.9251 H   0  0  0  0  0  0  0  0  0  0  0  0
    3.1021   26.4460    2.8404 H   0  0  0  0  0  0  0  0  0  0  0  0
    5.6940   26.6492    4.3373 H   0  0  0  0  0  0  0  0  0  0  0  0
    2.7161   27.0698    4.0135 H   0  0  0  0  0  0  0  0  0  0  0  0
    5.0604   27.2349    5.3325 H   0  0  0  0  0  0  0  0  0  0  0  0
    1.8213   27.3612    4.2676 H   0  0  0  0  0  0  0  0  0  0  0  0
    1.0010   28.5115    6.3856 H   0  0  0  0  0  0  0  0  0  0  0  0
   -0.2956   28.5986    6.0388 H   0  0  0  0  0  0  0  0  0  0  0  0
    0.6535   27.2465    3.5346 H   0  0  0  0  0  0  0  0  0  0  0  0
   -1.6821   28.6790    5.4678 H   0  0  0  0  0  0  0  0  0  0  0  0
   -0.7583   27.2027    3.0250 H   0  0  0  0  0  0  0  0  0  0  0  0
   -4.0186   27.9776    3.1659 H   0  0  0  0  0  0  0  0  0  0  0  0
   -2.1445   27.2849    2.4533 H   0  0  0  0  0  0  0  0  0  0  0  0
   -3.0943   28.6337    4.9590 H   0  0  0  0  0  0  0  0  0  0  0  0
    5.4188   27.5850    6.2342 H   0  0  0  0  0  0  0  0  0  0  0  0
    5.2016   29.1121    9.4159 H   0  0  0  0  0  0  0  0  0  0  0  0
    6.0427   28.1572    7.7186 H   0  0  0  0  0  0  0  0  0  0  0  0
    3.9186   29.4575    9.6245 H   0  0  0  0  0  0  0  0  0  0  0  0
    1.1279   28.8982    8.1876 H   0  0  0  0  0  0  0  0  0  0  0  0
   -0.3801   29.6681    8.9155 H   0  0  0  0  0  0  0  0  0  0  0  0
    0.1456   31.1732   10.5706 H   0  0  0  0  0  0  0  0  0  0  0  0
    2.0786   31.5055   11.0576 H   0  0  0  0  0  0  0  0  0  0  0  0
    3.6008   30.5012   10.0783 H   0  0  0  0  0  0  0  0  0  0  0  0
    1.6824   28.7689    7.2228 H   0  0  0  0  0  0  0  0  0  0  0  0
  1  2  1  0
  2  3  1  0
  3  4  1  0
  4  5  1  0
  5  6  1  0
  6  7  1  0
  7  8  1  0
  8  9  1  0
  9 10  1  0
  6 11  1  0
 11 12  1  0
 12 13  1  0
 13 14  1  0
 14 15  1  0
 15 16  1  0
 13 17  1  0
 17  6  1  0
 17 11  1  0
 16 14  1  0
  1 18  1  0
  1 19  1  0
  1 20  1  0
  2 21  1  0
  2 22  1  0
  3 23  1  0
  3 24  1  0
  4 25  1  0
  4 26  1  0
  5 27  1  0
  5 28  1  0
  7 29  1  0
  7 30  1  0
  8 31  1  0
  8 32  1  0
  9 33  1  0
  9 34  1  0
 10 35  1  0
 10 36  1  0
 10 37  1  0
 11 38  1  0
 12 39  1  0
 12 40  1  0
 13 41  1  0
 14 42  1  0
 15 43  1  0
 15 44  1  0
 16 45  1  0
 16 46  1  0
 17 47  1  0
M  END
