
     RDKit          2D

 22 25  0  0  0  0  0  0  0  0999 V2000
   19.6382  -23.8810   -6.2034 O   0  0  0  0  0  0  0  0  0  0  0  0
   19.4381  -23.0887   -7.4613 C   0  0  0  0  0  0  0  0  0  0  0  0
   18.0245  -22.6128   -7.6211 C   0  0  0  0  0  0  0  0  0  0  0  0
   17.2859  -21.8092   -8.6500 C   0  0  0  0  0  0  0  0  0  0  0  0
   17.3012  -21.7817   -8.7038 N   0  0  0  0  0  0  0  0  0  0  0  0
   17.6394  -21.1762   -9.8914 C   0  0  0  0  0  0  0  0  0  0  0  0
   17.6547  -21.1487   -9.9452 C   0  0  0  0  0  0  0  0  0  0  0  0
   16.2462  -21.0668   -9.4360 C   0  0  0  0  0  0  0  0  0  0  0  0
   18.9150  -21.0182  -10.7481 N   0  0  0  0  0  0  0  0  0  0  0  0
   20.3285  -21.4941  -10.5882 C   0  0  0  0  0  0  0  0  0  0  0  0
   21.0672  -22.2976   -9.5594 N   0  0  0  0  0  0  0  0  0  0  0  0
   20.6984  -22.9582   -8.2641 N   0  0  0  0  0  0  0  0  0  0  0  0
   18.0341  -23.3740   -6.3286 H   0  0  0  0  0  0  0  0  0  0  0  0
   16.6160  -22.5309   -7.1119 H   0  0  0  0  0  0  0  0  0  0  0  0
   14.6121  -21.4639   -8.0069 H   0  0  0  0  0  0  0  0  0  0  0  0
   16.6101  -20.0123  -11.4004 H   0  0  0  0  0  0  0  0  0  0  0  0
   14.8832  -20.1199  -10.4216 H   0  0  0  0  0  0  0  0  0  0  0  0
   14.7982  -20.6750   -9.4368 H   0  0  0  0  0  0  0  0  0  0  0  0
   20.3190  -20.7329  -11.8807 H   0  0  0  0  0  0  0  0  0  0  0  0
   21.7370  -21.5760  -11.0974 H   0  0  0  0  0  0  0  0  0  0  0  0
   22.5142  -22.4845   -9.9074 H   0  0  0  0  0  0  0  0  0  0  0  0
   21.8631  -23.6506   -7.6208 H   0  0  0  0  0  0  0  0  0  0  0  0
  1  2  2  0
  2  3  1  0
  3  4  1  0
  4  5  1  0
  5  6  1  0
  6  7  1  0
  7  8  1  0
  8  9  1  0
  9 10  1  0
 10 11  1  0
 11 12  1  0
 12  2  1  0
  7  4  1  0
  8  4  1  0
  9  7  1  0
  3 13  1  0
  3 14  1  0
  5 15  1  0
  6 16  1  0
  6 17  1  0
  8 18  1  0
 10 19  1  0
 10 20  1  0
 11 21  1  0
 12 22  1  0
M  END
