
     RDKit          2D

104111  0  0  0  0  0  0  0  0999 V2000
   17.9009  -24.7158  -25.1874 C   0  0  0  0  0  0  0  0  0  0  0  0
   16.4742  -25.1440  -25.0106 C   0  0  0  0  0  0  0  0  0  0  0  0
   16.7527  -25.3161  -26.4745 C   0  0  0  0  0  0  0  0  0  0  0  0
   15.9579  -25.7839  -27.6576 C   0  0  0  0  0  0  0  0  0  0  0  0
   14.5555  -26.2733  -27.8668 C   0  0  0  0  0  0  0  0  0  0  0  0
   13.2730  -26.7907  -28.4477 C   0  0  0  0  0  0  0  0  0  0  0  0
   11.9000  -26.5500  -24.6286 C   0  0  0  0  0  0  0  0  0  0  0  0
   12.6948  -26.0822  -23.4456 C   0  0  0  0  0  0  0  0  0  0  0  0
   11.5063  -26.3066  -22.5584 C   0  0  0  0  0  0  0  0  0  0  0  0
   10.3177  -26.5310  -21.6712 C   0  0  0  0  0  0  0  0  0  0  0  0
    9.1292  -26.7554  -20.7841 C   0  0  0  0  0  0  0  0  0  0  0  0
    9.2231  -26.4621  -19.3160 C   0  0  0  0  0  0  0  0  0  0  0  0
   10.5055  -25.9444  -18.7351 C   0  0  0  0  0  0  0  0  0  0  0  0
   11.7880  -25.4267  -18.1543 C   0  0  0  0  0  0  0  0  0  0  0  0
   13.0703  -24.9090  -17.5734 C   0  0  0  0  0  0  0  0  0  0  0  0
   14.4891  -24.4984  -17.8353 C   0  0  0  0  0  0  0  0  0  0  0  0
   15.6895  -23.9796  -17.1005 C   0  0  0  0  0  0  0  0  0  0  0  0
   16.1098  -23.5953  -15.7128 C   0  0  0  0  0  0  0  0  0  0  0  0
   15.5535  -23.5255  -14.3215 C   0  0  0  0  0  0  0  0  0  0  0  0
   14.2807  -23.8027  -13.5776 C   0  0  0  0  0  0  0  0  0  0  0  0
   15.2696  -23.3027  -12.5667 C   0  0  0  0  0  0  0  0  0  0  0  0
   13.5752  -23.7931  -12.2540 C   0  0  0  0  0  0  0  0  0  0  0  0
   12.8697  -23.7835  -10.9303 C   0  0  0  0  0  0  0  0  0  0  0  0
   12.0501  -24.0498   -9.7025 S   0  0  0  0  0  0  0  0  0  0  0  0
   12.2367  -22.8965   -8.7615 C   0  0  0  0  0  0  0  0  0  0  0  0
   13.1716  -21.9176   -9.4079 C   0  0  0  0  0  0  0  0  0  0  0  0
   13.7171  -20.5978   -8.9490 C   0  0  0  0  0  0  0  0  0  0  0  0
   14.6539  -19.8261   -9.8305 C   0  0  0  0  0  0  0  0  0  0  0  0
   15.0451  -20.3744  -11.1708 C   0  0  0  0  0  0  0  0  0  0  0  0
   14.4995  -21.6941  -11.6296 C   0  0  0  0  0  0  0  0  0  0  0  0
   13.5628  -22.4657  -10.7482 C   0  0  0  0  0  0  0  0  0  0  0  0
   12.8871  -24.2973  -13.8293 C   0  0  0  0  0  0  0  0  0  0  0  0
   11.5474  -24.6236  -13.2388 C   0  0  0  0  0  0  0  0  0  0  0  0
   11.1036  -25.9439  -12.6821 O   0  0  0  0  0  0  0  0  0  0  0  0
   10.4845  -23.5680  -13.1620 O   0  0  0  0  0  0  0  0  0  0  0  0
   12.0247  -24.7778  -14.9587 C   0  0  0  0  0  0  0  0  0  0  0  0
   12.0972  -25.0194  -16.4373 C   0  0  0  0  0  0  0  0  0  0  0  0
   13.8834  -25.8578  -24.3327 C   0  0  0  0  0  0  0  0  0  0  0  0
   15.2857  -25.3684  -24.1235 C   0  0  0  0  0  0  0  0  0  0  0  0
   13.0886  -26.3256  -25.5157 C   0  0  0  0  0  0  0  0  0  0  0  0
   11.8995  -26.8437  -26.2693 C   0  0  0  0  0  0  0  0  0  0  0  0
   11.0537  -27.3208  -27.4124 C   0  0  0  0  0  0  0  0  0  0  0  0
   12.4749  -26.9058  -27.6531 C   0  0  0  0  0  0  0  0  0  0  0  0
   13.3670  -26.4977  -26.9796 C   0  0  0  0  0  0  0  0  0  0  0  0
   18.0246  -25.0765  -25.8875 H   0  0  0  0  0  0  0  0  0  0  0  0
   17.8416  -23.9793  -23.8820 H   0  0  0  0  0  0  0  0  0  0  0  0
   19.3276  -24.2875  -25.3642 H   0  0  0  0  0  0  0  0  0  0  0  0
   17.0958  -24.7120  -23.7157 H   0  0  0  0  0  0  0  0  0  0  0  0
   17.4742  -25.1347  -26.7608 H   0  0  0  0  0  0  0  0  0  0  0  0
   16.7519  -25.7556  -28.9299 H   0  0  0  0  0  0  0  0  0  0  0  0
   15.0147  -26.3801  -29.2908 H   0  0  0  0  0  0  0  0  0  0  0  0
   12.4783  -27.2584  -29.6307 H   0  0  0  0  0  0  0  0  0  0  0  0
   10.4719  -26.9833  -24.4773 H   0  0  0  0  0  0  0  0  0  0  0  0
   13.4895  -25.6144  -22.2625 H   0  0  0  0  0  0  0  0  0  0  0  0
   10.7113  -26.7737  -23.7415 H   0  0  0  0  0  0  0  0  0  0  0  0
   12.3013  -25.8395  -21.3752 H   0  0  0  0  0  0  0  0  0  0  0  0
    9.5230  -26.9990  -22.8542 H   0  0  0  0  0  0  0  0  0  0  0  0
   11.2514  -26.0391  -20.6051 H   0  0  0  0  0  0  0  0  0  0  0  0
    7.8469  -27.2731  -21.3650 H   0  0  0  0  0  0  0  0  0  0  0  0
    8.0346  -26.6865  -18.4289 H   0  0  0  0  0  0  0  0  0  0  0  0
    9.8742  -25.9069  -17.3749 H   0  0  0  0  0  0  0  0  0  0  0  0
   11.2884  -25.9185  -20.0144 H   0  0  0  0  0  0  0  0  0  0  0  0
   12.4200  -25.4665  -19.5140 H   0  0  0  0  0  0  0  0  0  0  0  0
   10.8644  -25.5133  -16.9754 H   0  0  0  0  0  0  0  0  0  0  0  0
   13.1343  -25.1533  -19.0519 H   0  0  0  0  0  0  0  0  0  0  0  0
   14.0767  -24.8805  -19.2260 H   0  0  0  0  0  0  0  0  0  0  0  0
   15.4562  -24.3910  -18.9768 H   0  0  0  0  0  0  0  0  0  0  0  0
   16.2535  -24.0464  -18.4887 H   0  0  0  0  0  0  0  0  0  0  0  0
   17.1071  -23.5708  -17.3708 H   0  0  0  0  0  0  0  0  0  0  0  0
   17.3864  -23.3155  -16.4491 H   0  0  0  0  0  0  0  0  0  0  0  0
   17.3147  -23.0764  -14.9855 H   0  0  0  0  0  0  0  0  0  0  0  0
   16.9747  -23.0527  -14.2408 H   0  0  0  0  0  0  0  0  0  0  0  0
   16.4422  -23.0406  -13.2147 H   0  0  0  0  0  0  0  0  0  0  0  0
   14.3646  -23.3778  -11.3729 H   0  0  0  0  0  0  0  0  0  0  0  0
   16.5115  -23.0486  -13.3687 H   0  0  0  0  0  0  0  0  0  0  0  0
   16.2585  -22.8026  -11.5558 H   0  0  0  0  0  0  0  0  0  0  0  0
   14.5805  -22.9586  -11.5171 H   0  0  0  0  0  0  0  0  0  0  0  0
   12.3980  -24.6254  -12.6681 H   0  0  0  0  0  0  0  0  0  0  0  0
   12.1549  -25.0952  -11.0651 H   0  0  0  0  0  0  0  0  0  0  0  0
   11.2999  -23.6681   -7.8801 H   0  0  0  0  0  0  0  0  0  0  0  0
   12.1128  -22.0193   -7.5511 H   0  0  0  0  0  0  0  0  0  0  0  0
   12.6930  -21.4987   -8.0494 H   0  0  0  0  0  0  0  0  0  0  0  0
   13.9676  -19.4017   -8.0791 H   0  0  0  0  0  0  0  0  0  0  0  0
   12.9229  -20.7956   -7.6920 H   0  0  0  0  0  0  0  0  0  0  0  0
   15.5647  -18.7322  -10.3036 H   0  0  0  0  0  0  0  0  0  0  0  0
   14.5790  -18.8981   -8.6544 H   0  0  0  0  0  0  0  0  0  0  0  0
   15.9819  -19.6027  -12.0522 H   0  0  0  0  0  0  0  0  0  0  0  0
   15.1716  -21.7730  -12.9684 H   0  0  0  0  0  0  0  0  0  0  0  0
   14.0252  -21.1667  -10.1577 H   0  0  0  0  0  0  0  0  0  0  0  0
   12.4634  -24.1771  -12.3954 H   0  0  0  0  0  0  0  0  0  0  0  0
    9.1447  -23.8943  -12.5715 H   0  0  0  0  0  0  0  0  0  0  0  0
   10.8225  -25.0104  -14.0923 H   0  0  0  0  0  0  0  0  0  0  0  0
   10.6293  -25.2714  -15.2018 H   0  0  0  0  0  0  0  0  0  0  0  0
   10.7085  -25.3904  -16.0082 H   0  0  0  0  0  0  0  0  0  0  0  0
   10.9792  -25.5336  -17.2951 H   0  0  0  0  0  0  0  0  0  0  0  0
   13.9897  -25.5612  -22.8662 H   0  0  0  0  0  0  0  0  0  0  0  0
   14.8148  -25.2660  -22.7030 H   0  0  0  0  0  0  0  0  0  0  0  0
   16.2381  -24.8739  -23.0754 H   0  0  0  0  0  0  0  0  0  0  0  0
   10.7926  -27.0222  -25.2728 H   0  0  0  0  0  0  0  0  0  0  0  0
    9.7716  -27.6044  -26.6873 H   0  0  0  0  0  0  0  0  0  0  0  0
   10.6531  -27.6994  -28.8075 H   0  0  0  0  0  0  0  0  0  0  0  0
   12.5679  -27.1402  -29.1318 H   0  0  0  0  0  0  0  0  0  0  0  0
   13.9046  -26.4604  -27.7400 H   0  0  0  0  0  0  0  0  0  0  0  0
   12.0684  -27.0138  -27.5248 H   0  0  0  0  0  0  0  0  0  0  0  0
  1  2  1  0
  2  3  1  0
  3  4  2  0
  4  5  1  0
  5  6  1  0
  6  7  1  0
  7  8  1  0
  8  9  1  0
  9 10  1  0
 10 11  1  0
 11 12  2  3
 12 13  1  0
 13 14  1  0
 14 15  1  0
 15 16  1  0
 16 17  1  0
 17 18  1  0
 18 19  1  0
 19 20  1  0
 20 21  1  6
 20 22  1  0
 22 23  1  0
 23 24  1  0
 24 25  1  0
 25 26  1  0
 26 27  1  0
 27 28  1  0
 28 29  1  0
 29 30  2  0
 30 31  1  0
 20 32  1  0
 32 33  1  0
 33 34  2  0
 33 35  1  0
 32 36  1  0
 36 37  1  0
  8 38  1  0
 38 39  1  0
 38 40  1  0
 40 41  1  1
 41 42  1  0
 42 43  1  0
 40 44  1  0
 39  2  1  0
 43 41  1  0
 44  5  1  0
 44  6  1  0
 40  7  1  0
 37 15  1  0
 31 23  1  0
 31 26  1  0
  1 45  1  0
  1 46  1  0
  1 47  1  0
  2 48  1  6
  3 49  1  0
  4 50  1  0
  5 51  1  1
  6 52  1  1
  7 53  1  1
  8 54  1  1
  9 55  1  0
  9 56  1  0
 10 57  1  0
 10 58  1  0
 11 59  1  0
 12 60  1  0
 13 61  1  0
 13 62  1  0
 14 63  1  0
 14 64  1  0
 15 65  1  6
 16 66  1  0
 16 67  1  0
 17 68  1  0
 17 69  1  0
 18 70  1  0
 18 71  1  0
 19 72  1  0
 19 73  1  0
 21 74  1  0
 21 75  1  0
 21 76  1  0
 22 77  1  0
 22 78  1  0
 23 79  1  6
 25 80  1  0
 25 81  1  0
 26 82  1  1
 27 83  1  0
 27 84  1  0
 28 85  1  0
 28 86  1  0
 29 87  1  0
 30 88  1  0
 31 89  1  1
 32 90  1  6
 35 91  1  0
 36 92  1  0
 36 93  1  0
 37 94  1  0
 37 95  1  0
 38 96  1  1
 39 97  1  0
 39 98  1  0
 41 99  1  0
 42100  1  0
 42101  1  0
 43102  1  0
 43103  1  0
 44104  1  1
M  END
