
     RDKit          2D

 72 77  0  0  0  0  0  0  0  0999 V2000
   -6.5359   32.1361    2.9917 C   0  0  0  0  0  0  0  0  0  0  0  0
   -5.2216   31.4244    2.8642 C   0  0  0  0  0  0  0  0  0  0  0  0
   -4.7617   30.4985    3.9510 C   0  0  0  0  0  0  0  0  0  0  0  0
   -3.4488   30.0549    3.3768 O   0  0  0  0  0  0  0  0  0  0  0  0
   -3.9011   29.5302    4.7072 C   0  0  0  0  0  0  0  0  0  0  0  0
   -4.7554   29.3160    5.9215 C   0  0  0  0  0  0  0  0  0  0  0  0
   -5.6097   29.1017    7.1357 C   0  0  0  0  0  0  0  0  0  0  0  0
   -6.5391   30.0643    6.4580 O   0  0  0  0  0  1  0  0  0  0  0  0
   -6.6583   29.0887    8.2083 N   0  0  0  0  0  2  0  0  0  0  0  0
   -6.1982   28.1627    9.2950 C   0  0  0  0  0  0  0  0  0  0  0  0
   -4.8654   27.6035    8.8941 C   0  0  0  0  0  0  0  0  0  0  0  0
   -5.0239   26.9089   10.2141 C   0  0  0  0  0  0  0  0  0  0  0  0
   -3.5338   26.8950   10.3857 B   0  0  0  0  0  0  0  0  0  0  0  0
   -3.6923   26.2003   11.7057 C   0  0  0  0  0  0  0  0  0  0  0  0
   -5.1824   26.2143   11.5341 C   0  0  0  0  0  0  0  0  0  0  0  0
   -3.5820   26.8269    8.9063 N   0  0  0  0  0  0  0  0  0  0  0  0
   -3.2183   27.4073    7.5717 O   0  0  0  0  0  0  0  0  0  0  0  0
   -4.5016   28.1838    7.5596 S   0  0  0  0  0  4  0  0  0  0  0  0
   -3.9415   28.6355    6.2434 C   0  0  0  0  0  0  0  0  0  0  0  0
   -2.6521   27.8691    6.2322 C   0  0  0  0  0  0  0  0  0  0  0  0
   -1.4279   27.0229    6.4200 C   0  0  0  0  0  0  0  0  0  0  0  0
   -2.2168   26.7501    7.6665 C   0  0  0  0  0  0  0  0  0  0  0  0
   -3.0055   26.4774    8.9128 C   0  0  0  0  0  0  0  0  0  0  0  0
   -0.2506   26.8650    5.5042 C   0  0  0  0  0  0  0  0  0  0  0  0
    0.0986   25.9676    6.6543 O   0  0  0  0  0  0  0  0  0  0  0  0
    1.3880   25.2013    6.6432 C   0  0  0  0  0  0  0  0  0  0  0  0
    2.6774   24.4350    6.6320 C   0  0  0  0  0  0  0  0  0  0  0  0
   -0.0066   27.5144    4.1742 C   0  0  0  0  0  0  0  0  0  0  0  0
   -0.8797   28.4820    3.4316 C   0  0  0  0  0  0  0  0  0  0  0  0
    0.2976   28.3241    2.5158 Mg  0  0  0  0  0  2  0  0  0  0  0  0
    1.4749   28.1662    1.5999 C   0  0  0  0  0  0  0  0  0  0  0  0
   -2.2125   29.0392    3.8357 C   0  0  0  0  0  0  0  0  0  0  0  0
   -3.0013   28.7665    5.0821 S   0  0  0  0  0  4  0  0  0  0  0  0
   -6.9959   33.0620    1.9049 H   0  0  0  0  0  0  0  0  0  0  0  0
   -7.3902   31.9218    4.2059 H   0  0  0  0  0  0  0  0  0  0  0  0
   -4.3674   31.6386    1.6500 H   0  0  0  0  0  0  0  0  0  0  0  0
   -5.9879   30.7369    4.7813 H   0  0  0  0  0  0  0  0  0  0  0  0
   -2.5831   28.8302    4.5565 H   0  0  0  0  0  0  0  0  0  0  0  0
   -3.5548   28.4503    6.1650 H   0  0  0  0  0  0  0  0  0  0  0  0
   -5.8762   30.2283    5.5198 H   0  0  0  0  0  0  0  0  0  0  0  0
   -7.4914   28.5451    9.9518 H   0  0  0  0  0  0  0  0  0  0  0  0
   -6.0085   27.3168   10.5191 H   0  0  0  0  0  0  0  0  0  0  0  0
   -3.5338   26.8950   10.3857 H   0  0  0  0  0  0  0  0  0  0  0  0
   -2.1749   27.2407    9.8530 H   0  0  0  0  0  0  0  0  0  0  0  0
   -3.8508   25.5057   13.0257 H   0  0  0  0  0  0  0  0  0  0  0  0
   -2.2022   26.1864   11.8773 H   0  0  0  0  0  0  0  0  0  0  0  0
   -6.6725   26.2282   11.3626 H   0  0  0  0  0  0  0  0  0  0  0  0
   -5.3409   25.5197   12.8541 H   0  0  0  0  0  0  0  0  0  0  0  0
   -2.5576   25.8815    9.4600 H   0  0  0  0  0  0  0  0  0  0  0  0
   -4.8196   29.6028    5.5064 H   0  0  0  0  0  0  0  0  0  0  0  0
   -1.8931   28.1673    4.9733 H   0  0  0  0  0  0  0  0  0  0  0  0
   -0.8248   26.0698    7.4089 H   0  0  0  0  0  0  0  0  0  0  0  0
   -1.1411   25.8201    8.1437 H   0  0  0  0  0  0  0  0  0  0  0  0
   -3.0697   27.7186    6.9018 H   0  0  0  0  0  0  0  0  0  0  0  0
   -3.3563   25.8893   10.2474 H   0  0  0  0  0  0  0  0  0  0  0  0
   -1.9299   25.5471    9.3900 H   0  0  0  0  0  0  0  0  0  0  0  0
   -3.8583   27.4460    8.1482 H   0  0  0  0  0  0  0  0  0  0  0  0
    1.0821   26.3078    5.1001 H   0  0  0  0  0  0  0  0  0  0  0  0
    1.6245   25.2631    5.1632 H   0  0  0  0  0  0  0  0  0  0  0  0
    1.3080   25.0450    8.1328 H   0  0  0  0  0  0  0  0  0  0  0  0
    3.9669   23.6687    6.6208 H   0  0  0  0  0  0  0  0  0  0  0  0
    2.3371   23.8430    7.9675 H   0  0  0  0  0  0  0  0  0  0  0  0
    3.0176   25.0271    5.2964 H   0  0  0  0  0  0  0  0  0  0  0  0
    1.2730   26.7321    4.1996 H   0  0  0  0  0  0  0  0  0  0  0  0
    1.0190   27.5539    3.0803 H   0  0  0  0  0  0  0  0  0  0  0  0
   -1.0694   29.3280    2.2075 H   0  0  0  0  0  0  0  0  0  0  0  0
    2.6523   28.0083    0.6839 H   0  0  0  0  0  0  0  0  0  0  0  0
    1.9552   27.0039    2.4175 H   0  0  0  0  0  0  0  0  0  0  0  0
    0.9948   29.3284    0.7821 H   0  0  0  0  0  0  0  0  0  0  0  0
   -2.1302   29.7715    2.5292 H   0  0  0  0  0  0  0  0  0  0  0  0
   -3.2721   29.9748    3.3337 H   0  0  0  0  0  0  0  0  0  0  0  0
   -3.7751   29.7354    4.2379 H   0  0  0  0  0  0  0  0  0  0  0  0
  1  2  2  3
  2  3  1  0
  3  4  1  0
  4  5  1  0
  5  6  1  0
  6  7  1  0
  7  8  1  0
  7  9  1  0
  9 10  1  0
 10 11  1  0
 11 12  1  0
 12 13  1  0
 13 14  1  0
 14 15  1  0
 11 16  1  0
 16 17  1  0
 17 18  1  0
 18 19  1  0
 19 20  1  0
 20 21  1  0
 21 22  1  0
 22 23  1  0
 21 24  1  0
 24 25  1  0
 25 26  1  0
 26 27  1  0
 24 28  1  0
 28 29  1  0
 29 30  1  0
 30 31  1  0
 29 32  1  0
 32 33  1  0
  5  3  1  0
 18  7  1  0
 33 19  1  0
 18 11  1  0
 33 20  1  0
 15 12  1  0
  1 34  1  0
  1 35  1  0
  2 36  1  0
  3 37  1  0
  5 38  1  0
  6 39  1  0
  6 40  1  0
 10 41  1  0
 10 42  1  0
 12 43  1  0
 13 44  1  0
 14 45  1  0
 14 46  1  0
 15 47  1  0
 15 48  1  0
 16 49  1  0
 19 50  1  0
 20 51  1  0
 21 52  1  0
 22 53  1  0
 22 54  1  0
 23 55  1  0
 23 56  1  0
 23 57  1  0
 24 58  1  0
 26 59  1  0
 26 60  1  0
 27 61  1  0
 27 62  1  0
 27 63  1  0
 28 64  1  0
 28 65  1  0
 29 66  1  0
 31 67  1  0
 31 68  1  0
 31 69  1  0
 32 70  1  0
 32 71  1  0
 33 72  1  0
M  RAD  2   8   2   9   2
M  END
