
     RDKit          2D

 20 23  0  0  0  0  0  0  0  0999 V2000
    0.4067   27.0787    9.4752 O   0  0  0  0  0  0  0  0  0  0  0  0
   -0.7679   27.0939    8.5424 C   0  0  0  0  0  0  0  0  0  0  0  0
   -0.3547   28.2033    7.6213 O   0  0  0  0  0  0  0  0  0  0  0  0
   -1.6573   27.4925    7.4022 C   0  0  0  0  0  0  0  0  0  0  0  0
   -2.7355   26.4891    7.6861 C   0  0  0  0  0  0  0  0  0  0  0  0
   -3.8114   26.6605    6.6551 C   0  0  0  0  0  0  0  0  0  0  0  0
   -3.3982   27.7700    5.7340 C   0  0  0  0  0  0  0  0  0  0  0  0
   -2.0669   28.2842    6.1957 O   0  0  0  0  0  0  0  0  0  0  0  0
   -4.7008   27.0592    5.5149 C   0  0  0  0  0  0  0  0  0  0  0  0
   -6.0034   26.3484    5.2958 C   0  0  0  0  0  0  0  0  0  0  0  0
   -5.5902   27.4578    4.3747 N   0  0  0  0  0  0  0  0  0  0  0  0
    0.4512   26.0979   10.6092 H   0  0  0  0  0  0  0  0  0  0  0  0
   -1.3246   26.1855    9.1264 H   0  0  0  0  0  0  0  0  0  0  0  0
   -2.1183   26.0649    8.6428 H   0  0  0  0  0  0  0  0  0  0  0  0
   -3.6277   25.4023    8.2084 H   0  0  0  0  0  0  0  0  0  0  0  0
   -4.7036   25.5737    7.1774 H   0  0  0  0  0  0  0  0  0  0  0  0
   -3.5354   28.7101    4.5733 H   0  0  0  0  0  0  0  0  0  0  0  0
   -5.9589   25.3676    6.4298 H   0  0  0  0  0  0  0  0  0  0  0  0
   -7.3216   25.9783    4.6829 H   0  0  0  0  0  0  0  0  0  0  0  0
   -5.8651   28.3285    3.1846 H   0  0  0  0  0  0  0  0  0  0  0  0
  1  2  1  0
  2  3  1  0
  3  4  1  0
  4  5  1  0
  5  6  1  0
  6  7  1  0
  7  8  1  0
  7  9  1  0
  9 10  1  0
 10 11  1  0
  4  2  1  0
  9  6  1  0
  8  4  1  0
 11  9  1  0
  1 12  1  0
  2 13  1  0
  5 14  1  0
  5 15  1  0
  6 16  1  0
  7 17  1  0
 10 18  1  0
 10 19  1  0
 11 20  1  0
M  END
