
     RDKit          2D

 49 55  0  0  0  0  0  0  0  0999 V2000
   15.8771  -21.7963   -8.8672 O   0  0  0  0  0  0  0  0  0  0  0  0
   17.2698  -22.1165   -8.4115 C   0  0  0  0  0  0  0  0  0  0  0  0
   17.7845  -21.8456   -9.7942 C   0  0  0  0  0  0  0  0  0  0  0  0
   18.2992  -21.5748  -11.1769 C   0  0  0  0  0  0  0  0  0  0  0  0
   18.8138  -21.3040  -12.5595 C   0  0  0  0  0  0  0  0  0  0  0  0
   20.2753  -21.5689  -12.3500 C   0  0  0  0  0  0  0  0  0  0  0  0
   21.7599  -21.7611  -12.4447 C   0  0  0  0  0  0  0  0  0  0  0  0
   22.1761  -21.4689  -13.8558 C   0  0  0  0  0  0  0  0  0  0  0  0
   22.2868  -21.1212  -15.3108 C   0  0  0  0  0  0  0  0  0  0  0  0
   20.9487  -21.0960  -14.6333 C   0  0  0  0  0  0  0  0  0  0  0  0
   19.7739  -21.1578  -13.7027 C   0  0  0  0  0  0  0  0  0  0  0  0
   16.7552  -22.3873   -7.0288 C   0  0  0  0  0  0  0  0  0  0  0  0
   15.4596  -22.0320   -7.6961 C   0  0  0  0  0  0  0  0  0  0  0  0
   14.7333  -22.2500   -6.4018 N   0  0  0  0  0  0  0  0  0  0  0  0
   16.0289  -22.6053   -5.7346 C   0  0  0  0  0  0  0  0  0  0  0  0
   14.9378  -22.7027   -4.7099 C   0  0  0  0  0  0  0  0  0  0  0  0
   15.9456  -23.1080   -3.6754 C   0  0  0  0  0  0  0  0  0  0  0  0
   18.0954  -23.3600   -3.9179 C   0  0  0  0  0  0  0  0  0  0  0  0
   18.3858  -23.0430   -5.3550 C   0  0  0  0  0  0  0  0  0  0  0  0
   19.6814  -23.3983   -4.6877 O   0  0  0  0  0  0  0  0  0  0  0  0
   18.2119  -22.6579   -6.7942 C   0  0  0  0  0  0  0  0  0  0  0  0
   17.0367  -23.0105   -4.7001 C   0  0  0  0  0  0  0  0  0  0  0  0
   15.4499  -21.3873  -10.2457 H   0  0  0  0  0  0  0  0  0  0  0  0
   18.7150  -22.4013   -8.1277 H   0  0  0  0  0  0  0  0  0  0  0  0
   19.1779  -22.1612   -9.3373 H   0  0  0  0  0  0  0  0  0  0  0  0
   16.4642  -21.4995  -10.4162 H   0  0  0  0  0  0  0  0  0  0  0  0
   17.1973  -20.5801  -11.3922 H   0  0  0  0  0  0  0  0  0  0  0  0
   19.2270  -22.4931  -10.8329 H   0  0  0  0  0  0  0  0  0  0  0  0
   17.5311  -20.9451  -13.2492 H   0  0  0  0  0  0  0  0  0  0  0  0
   20.3389  -21.9047  -11.0439 H   0  0  0  0  0  0  0  0  0  0  0  0
   21.6493  -22.1088  -10.9897 H   0  0  0  0  0  0  0  0  0  0  0  0
   23.2214  -22.0260  -12.2351 H   0  0  0  0  0  0  0  0  0  0  0  0
   23.6376  -21.7337  -13.6463 H   0  0  0  0  0  0  0  0  0  0  0  0
   23.7646  -21.2872  -15.5065 H   0  0  0  0  0  0  0  0  0  0  0  0
   21.8842  -20.7159  -16.6977 H   0  0  0  0  0  0  0  0  0  0  0  0
   20.1676  -20.6797  -15.8443 H   0  0  0  0  0  0  0  0  0  0  0  0
   18.7473  -20.7545  -14.7191 H   0  0  0  0  0  0  0  0  0  0  0  0
   14.1640  -21.6768   -8.3632 H   0  0  0  0  0  0  0  0  0  0  0  0
   15.6675  -21.8740   -8.4492 H   0  0  0  0  0  0  0  0  0  0  0  0
   13.2652  -22.1042   -6.1308 H   0  0  0  0  0  0  0  0  0  0  0  0
   13.8468  -22.8002   -3.6852 H   0  0  0  0  0  0  0  0  0  0  0  0
   13.8046  -22.3124   -5.6118 H   0  0  0  0  0  0  0  0  0  0  0  0
   15.8867  -23.4634   -2.2194 H   0  0  0  0  0  0  0  0  0  0  0  0
   19.5520  -23.6306   -3.6833 H   0  0  0  0  0  0  0  0  0  0  0  0
   17.8050  -23.6771   -2.4809 H   0  0  0  0  0  0  0  0  0  0  0  0
   20.9582  -23.3872   -5.4750 H   0  0  0  0  0  0  0  0  0  0  0  0
   19.6970  -22.8566   -6.8635 H   0  0  0  0  0  0  0  0  0  0  0  0
   18.5276  -22.3456   -8.2269 H   0  0  0  0  0  0  0  0  0  0  0  0
   18.1357  -23.4057   -3.7589 H   0  0  0  0  0  0  0  0  0  0  0  0
  1  2  1  0
  2  3  1  0
  3  4  1  0
  4  5  1  0
  5  6  1  0
  6  7  1  0
  7  8  1  0
  8  9  1  0
  9 10  1  0
 10 11  1  0
  2 12  1  0
 12 13  1  0
 13 14  1  0
 14 15  1  0
 15 16  1  0
 16 17  1  0
 17 18  1  0
 18 19  1  0
 19 20  1  0
 19 21  1  0
 19 22  1  0
 11  5  1  0
 15 12  1  0
 22 17  1  0
 11  6  1  0
 21 12  1  0
 10  8  1  0
 22 15  1  0
  1 23  1  0
  2 24  1  0
  3 25  1  0
  3 26  1  0
  4 27  1  0
  4 28  1  0
  5 29  1  0
  6 30  1  0
  7 31  1  0
  7 32  1  0
  8 33  1  0
  9 34  1  0
  9 35  1  0
 10 36  1  0
 11 37  1  0
 13 38  1  0
 13 39  1  0
 14 40  1  0
 16 41  1  0
 16 42  1  0
 17 43  1  0
 18 44  1  0
 18 45  1  0
 20 46  1  0
 21 47  1  0
 21 48  1  0
 22 49  1  0
M  END
