
     RDKit          2D

 21 23  0  0  0  0  0  0  0  0999 V2000
   17.1612  -21.7023   -6.3611 C   0  0  0  0  0  0  0  0  0  0  0  0
   16.0595  -22.0894   -7.3025 O   0  0  0  0  0  0  0  0  0  0  0  0
   16.0243  -21.5207   -8.6901 C   0  0  0  0  0  0  0  0  0  0  0  0
   14.5294  -21.6437   -8.7026 C   0  0  0  0  0  0  0  0  0  0  0  0
   13.7175  -21.0340   -7.5984 C   0  0  0  0  0  0  0  0  0  0  0  0
   13.0345  -21.7666   -8.7151 C   0  0  0  0  0  0  0  0  0  0  0  0
   13.8464  -22.3762   -9.8192 N   0  0  0  0  0  0  0  0  0  0  0  0
   15.9892  -20.9521  -10.0777 C   0  0  0  0  0  0  0  0  0  0  0  0
   17.4841  -20.8292  -10.0652 O   0  0  0  0  0  0  0  0  0  0  0  0
   17.5193  -21.3978   -8.6776 C   0  0  0  0  0  0  0  0  0  0  0  0
   18.2629  -21.3151   -5.4196 H   0  0  0  0  0  0  0  0  0  0  0  0
   16.5655  -22.5820   -5.3021 H   0  0  0  0  0  0  0  0  0  0  0  0
   17.5468  -21.2132   -6.8586 H   0  0  0  0  0  0  0  0  0  0  0  0
   14.8149  -20.4417   -6.7648 H   0  0  0  0  0  0  0  0  0  0  0  0
   12.5245  -20.6301   -6.7839 H   0  0  0  0  0  0  0  0  0  0  0  0
   11.5396  -21.8895   -8.7276 H   0  0  0  0  0  0  0  0  0  0  0  0
   13.9209  -23.1512  -11.1013 H   0  0  0  0  0  0  0  0  0  0  0  0
   15.9540  -20.3835  -11.4653 H   0  0  0  0  0  0  0  0  0  0  0  0
   14.5302  -20.9338  -10.4255 H   0  0  0  0  0  0  0  0  0  0  0  0
   17.8214  -21.6565   -7.9868 H   0  0  0  0  0  0  0  0  0  0  0  0
   19.0142  -21.2749   -8.6652 H   0  0  0  0  0  0  0  0  0  0  0  0
  1  2  1  0
  2  3  1  0
  3  4  1  0
  4  5  1  0
  5  6  1  0
  6  7  1  0
  3  8  1  0
  8  9  1  0
  9 10  1  0
 10  3  1  0
  6  4  1  0
  7  4  1  0
  1 11  1  0
  1 12  1  0
  1 13  1  0
  5 14  1  0
  5 15  1  0
  6 16  1  0
  7 17  1  0
  8 18  1  0
  8 19  1  0
 10 20  1  0
 10 21  1  0
M  END
