
     RDKit          2D

 25 25  0  0  0  0  0  0  0  0999 V2000
   13.5818  -22.6341   -4.3378 C   0  0  0  0  0  0  0  0  0  0  0  0
   14.7456  -21.7526   -4.6819 O   0  0  0  0  0  0  0  0  0  0  0  0
   15.2180  -21.6544   -6.1022 S   0  0  0  0  0  3  0  0  0  0  0  0
   16.3819  -20.7729   -6.4463 C   0  0  0  0  0  0  0  0  0  0  0  0
   16.4843  -20.4525   -5.2789 O   0  0  0  0  0  1  0  0  0  0  0  0
   16.2552  -21.1685   -7.8877 C   0  0  0  0  0  0  0  0  0  0  0  0
   16.1287  -21.5641   -9.3290 C   0  0  0  0  0  0  0  0  0  0  0  0
   16.0021  -21.9596  -10.7704 O   0  0  0  0  0  0  0  0  0  0  0  0
   14.9656  -22.4467   -8.9847 O   0  0  0  0  0  0  0  0  0  0  0  0
   17.4189  -20.2868   -8.2318 C   0  0  0  0  0  0  0  0  0  0  0  0
   17.7456  -19.7442   -6.8722 C   0  0  0  0  0  0  0  0  0  0  0  0
   18.5557  -19.3230   -8.0623 N   0  0  0  0  0  0  0  0  0  0  0  0
   12.4179  -23.5156   -3.9938 H   0  0  0  0  0  0  0  0  0  0  0  0
   13.4587  -23.0338   -5.7784 H   0  0  0  0  0  0  0  0  0  0  0  0
   13.7048  -22.2344   -2.8974 H   0  0  0  0  0  0  0  0  0  0  0  0
   14.4164  -22.5009   -7.0462 H   0  0  0  0  0  0  0  0  0  0  0  0
   16.9982  -20.2675   -6.4384 H   0  0  0  0  0  0  0  0  0  0  0  0
   15.0848  -22.0919   -7.7218 H   0  0  0  0  0  0  0  0  0  0  0  0
   16.9589  -20.9607   -9.7062 H   0  0  0  0  0  0  0  0  0  0  0  0
   16.9462  -21.3935  -11.7892 H   0  0  0  0  0  0  0  0  0  0  0  0
   14.2745  -23.2305  -10.0608 H   0  0  0  0  0  0  0  0  0  0  0  0
   17.5787  -20.3747   -9.3101 H   0  0  0  0  0  0  0  0  0  0  0  0
   18.4371  -18.9607   -5.7960 H   0  0  0  0  0  0  0  0  0  0  0  0
   17.1591  -20.0786   -6.1561 H   0  0  0  0  0  0  0  0  0  0  0  0
   19.6797  -18.5234   -8.6515 H   0  0  0  0  0  0  0  0  0  0  0  0
  1  2  1  0
  2  3  1  0
  3  4  1  0
  4  5  1  0
  4  6  1  0
  6  7  1  0
  7  8  1  0
  7  9  1  0
  6 10  1  0
 10 11  1  0
 11 12  1  0
 12 10  1  0
  1 13  1  0
  1 14  1  0
  1 15  1  0
  3 16  1  0
  4 17  1  0
  6 18  1  0
  7 19  1  0
  8 20  1  0
  9 21  1  0
 10 22  1  0
 11 23  1  0
 11 24  1  0
 12 25  1  0
M  RAD  2   3   2   5   2
M  END
