
     RDKit          2D

 39 41  0  0  0  0  0  0  0  0999 V2000
   15.7342  -23.5797   -7.5231 C   0  0  0  0  0  0  0  0  0  0  0  0
   15.3929  -22.8119   -8.7658 C   0  0  0  0  0  0  0  0  0  0  0  0
   15.0515  -22.0442  -10.0083 C   0  0  0  0  0  0  0  0  0  0  0  0
   14.7102  -21.2765  -11.2510 C   0  0  0  0  0  0  0  0  0  0  0  0
   14.8885  -20.4722  -12.5045 C   0  0  0  0  0  0  0  0  0  0  0  0
   16.0877  -20.9046  -11.7140 C   0  0  0  0  0  0  0  0  0  0  0  0
   17.4651  -20.5327  -12.1770 C   0  0  0  0  0  0  0  0  0  0  0  0
   17.2869  -21.3370  -10.9234 C   0  0  0  0  0  0  0  0  0  0  0  0
   16.8518  -22.5702   -9.0171 C   0  0  0  0  0  0  0  0  0  0  0  0
   18.3107  -22.3285   -9.2685 C   0  0  0  0  0  0  0  0  0  0  0  0
   19.7696  -22.0869   -9.5198 C   0  0  0  0  0  0  0  0  0  0  0  0
   21.2284  -21.8451   -9.7713 O   0  0  0  0  0  0  0  0  0  0  0  0
   17.1676  -23.0280   -7.6240 C   0  0  0  0  0  0  0  0  0  0  0  0
   17.9635  -23.3754   -6.4009 C   0  0  0  0  0  0  0  0  0  0  0  0
   18.6592  -22.8694   -7.6296 C   0  0  0  0  0  0  0  0  0  0  0  0
   16.0755  -24.3474   -6.2804 H   0  0  0  0  0  0  0  0  0  0  0  0
   14.2755  -23.8238   -7.2732 H   0  0  0  0  0  0  0  0  0  0  0  0
   16.5303  -23.5525   -7.4922 H   0  0  0  0  0  0  0  0  0  0  0  0
   13.9339  -23.0537   -8.5143 H   0  0  0  0  0  0  0  0  0  0  0  0
   16.5105  -21.8032  -10.2601 H   0  0  0  0  0  0  0  0  0  0  0  0
   13.5926  -22.2853   -9.7565 H   0  0  0  0  0  0  0  0  0  0  0  0
   13.2143  -21.3818  -11.2195 H   0  0  0  0  0  0  0  0  0  0  0  0
   13.4544  -20.2982  -12.9084 H   0  0  0  0  0  0  0  0  0  0  0  0
   15.5648  -19.7284  -13.6178 H   0  0  0  0  0  0  0  0  0  0  0  0
   17.1238  -19.7650  -13.4196 H   0  0  0  0  0  0  0  0  0  0  0  0
   18.9610  -20.4274  -12.2084 H   0  0  0  0  0  0  0  0  0  0  0  0
   18.7833  -21.3157  -10.8223 H   0  0  0  0  0  0  0  0  0  0  0  0
   16.6106  -22.0808   -9.8102 H   0  0  0  0  0  0  0  0  0  0  0  0
   16.5359  -22.1125  -10.4102 H   0  0  0  0  0  0  0  0  0  0  0  0
   18.9943  -23.0062   -8.1181 H   0  0  0  0  0  0  0  0  0  0  0  0
   18.1503  -21.5460  -10.5381 H   0  0  0  0  0  0  0  0  0  0  0  0
   20.1109  -22.8549   -8.2774 H   0  0  0  0  0  0  0  0  0  0  0  0
   19.6086  -21.2951  -10.7837 H   0  0  0  0  0  0  0  0  0  0  0  0
   22.2535  -22.3897   -8.8211 H   0  0  0  0  0  0  0  0  0  0  0  0
   15.9634  -23.4350   -6.8277 H   0  0  0  0  0  0  0  0  0  0  0  0
   16.8579  -23.8136   -5.4866 H   0  0  0  0  0  0  0  0  0  0  0  0
   19.1432  -23.5707   -5.4953 H   0  0  0  0  0  0  0  0  0  0  0  0
   20.0806  -22.8890   -7.1508 H   0  0  0  0  0  0  0  0  0  0  0  0
   19.2133  -22.3548   -8.9251 H   0  0  0  0  0  0  0  0  0  0  0  0
  1  2  1  0
  2  3  1  0
  3  4  1  0
  4  5  1  0
  5  6  1  0
  6  7  1  0
  7  8  1  0
  2  9  1  0
  9 10  1  0
 10 11  1  0
 11 12  1  0
  9 13  1  0
 13 14  1  0
 14 15  1  0
  6  4  1  0
 15 13  1  0
  8  6  1  0
  1 16  1  0
  1 17  1  0
  1 18  1  0
  2 19  1  0
  3 20  1  0
  3 21  1  0
  4 22  1  0
  5 23  1  0
  5 24  1  0
  7 25  1  0
  7 26  1  0
  8 27  1  0
  8 28  1  0
  9 29  1  0
 10 30  1  0
 10 31  1  0
 11 32  1  0
 11 33  1  0
 12 34  1  0
 13 35  1  0
 14 36  1  0
 14 37  1  0
 15 38  1  0
 15 39  1  0
M  END
