
     RDKit          2D

 46 51  0  0  0  0  0  0  0  0999 V2000
   -3.3227   23.8888    5.5844 C   0  0  0  0  0  0  0  0  0  0  0  0
   -1.8708   23.5214    5.5007 C   0  0  0  0  0  0  0  0  0  0  0  0
   -0.4189   23.1540    5.4169 C   0  0  0  0  0  0  0  0  0  0  0  0
    0.1825   24.5131    5.2146 C   0  0  0  0  0  0  0  0  0  0  0  0
    1.0667   23.3028    5.2730 C   0  0  0  0  0  0  0  0  0  0  0  0
    2.5524   23.4518    5.1291 C   0  0  0  0  0  0  0  0  0  0  0  0
    3.1538   24.8109    4.9268 C   0  0  0  0  0  0  0  0  0  0  0  0
    3.7552   26.1701    4.7245 C   0  0  0  0  0  0  0  0  0  0  0  0
    2.8710   27.3803    4.6660 C   0  0  0  0  0  0  0  0  0  0  0  0
    2.2696   26.0212    4.8684 C   0  0  0  0  0  0  0  0  0  0  0  0
    0.7840   25.8723    5.0123 C   0  0  0  0  0  0  0  0  0  0  0  0
   -0.6679   26.2398    5.0960 C   0  0  0  0  0  0  0  0  0  0  0  0
   -1.0867   27.6748    4.9728 C   0  0  0  0  0  0  0  0  0  0  0  0
   -2.5386   28.0423    5.0565 C   0  0  0  0  0  0  0  0  0  0  0  0
   -3.5717   26.9747    5.2635 C   0  0  0  0  0  0  0  0  0  0  0  0
   -2.9573   29.4773    4.9333 C   0  0  0  0  0  0  0  0  0  0  0  0
   -4.4092   29.8449    5.0170 C   0  0  0  0  0  0  0  0  0  0  0  0
   -4.3120   31.3316    4.8438 C   0  0  0  0  0  0  0  0  0  0  0  0
   -5.5550   32.1711    4.8572 N   0  0  0  0  0  0  0  0  0  0  0  0
   -5.6522   30.6843    5.0305 C   0  0  0  0  0  0  0  0  0  0  0  0
   -6.9924   30.0371    5.2172 O   0  0  0  0  0  0  0  0  0  0  0  0
   -4.7746   24.2563    5.6682 H   0  0  0  0  0  0  0  0  0  0  0  0
   -3.6774   22.4441    5.7762 H   0  0  0  0  0  0  0  0  0  0  0  0
   -2.8467   25.1392    5.4039 H   0  0  0  0  0  0  0  0  0  0  0  0
   -1.8761   24.6082    5.3796 H   0  0  0  0  0  0  0  0  0  0  0  0
   -2.2254   22.0766    5.6927 H   0  0  0  0  0  0  0  0  0  0  0  0
   -0.5161   21.6671    5.5902 H   0  0  0  0  0  0  0  0  0  0  0  0
   -0.9257   25.0095    5.2546 H   0  0  0  0  0  0  0  0  0  0  0  0
    1.2678   24.7783    5.0921 H   0  0  0  0  0  0  0  0  0  0  0  0
    4.0042   23.0842    5.0454 H   0  0  0  0  0  0  0  0  0  0  0  0
    2.4552   21.9649    5.3023 H   0  0  0  0  0  0  0  0  0  0  0  0
    4.5220   24.1981    4.8774 H   0  0  0  0  0  0  0  0  0  0  0  0
    5.2409   26.3190    4.5805 H   0  0  0  0  0  0  0  0  0  0  0  0
    3.9041   28.4480    4.4590 H   0  0  0  0  0  0  0  0  0  0  0  0
    1.6281   28.2198    4.6795 H   0  0  0  0  0  0  0  0  0  0  0  0
    0.8811   27.3591    4.8390 H   0  0  0  0  0  0  0  0  0  0  0  0
   -1.5892   25.6681    5.2384 H   0  0  0  0  0  0  0  0  0  0  0  0
   -0.0536   28.7425    4.7658 H   0  0  0  0  0  0  0  0  0  0  0  0
   -4.6048   25.9071    5.4705 H   0  0  0  0  0  0  0  0  0  0  0  0
   -4.5351   27.7738    5.7691 H   0  0  0  0  0  0  0  0  0  0  0  0
   -2.6083   26.1755    4.7579 H   0  0  0  0  0  0  0  0  0  0  0  0
   -1.9242   30.5450    4.7262 H   0  0  0  0  0  0  0  0  0  0  0  0
   -5.0965   28.6979    5.2032 H   0  0  0  0  0  0  0  0  0  0  0  0
   -2.9718   31.9790    4.6570 H   0  0  0  0  0  0  0  0  0  0  0  0
   -6.2165   33.5142    4.7650 H   0  0  0  0  0  0  0  0  0  0  0  0
   -8.2240   30.6889    4.6621 H   0  0  0  0  0  0  0  0  0  0  0  0
  1  2  1  0
  2  3  1  0
  3  4  1  0
  4  5  1  0
  5  6  1  0
  6  7  1  0
  7  8  1  0
  8  9  1  0
 10  9  1  1
 10 11  1  0
 11 12  1  0
 12 13  2  3
 13 14  1  0
 14 15  1  0
 14 16  2  3
 16 17  1  0
 17 18  1  0
 18 19  1  0
 19 20  1  0
 20 21  1  6
  5  3  1  0
 10  7  1  0
 20 17  1  0
 11  4  1  0
 20 18  1  0
 10  8  1  0
  1 22  1  0
  1 23  1  0
  1 24  1  0
  2 25  1  0
  2 26  1  0
  3 27  1  1
  4 28  1  1
  5 29  1  1
  6 30  1  0
  6 31  1  0
  7 32  1  1
  8 33  1  6
  9 34  1  0
  9 35  1  0
 11 36  1  1
 12 37  1  0
 13 38  1  0
 15 39  1  0
 15 40  1  0
 15 41  1  0
 16 42  1  0
 17 43  1  1
 18 44  1  1
 19 45  1  0
 21 46  1  0
M  END
