
     RDKit          2D

 31 33  0  0  0  0  0  0  0  0999 V2000
   14.6753  -18.5313  -16.7317 C   0  0  0  0  0  0  0  0  0  0  0  0
   15.2176  -17.6699  -15.6300 C   0  0  0  0  0  0  0  0  0  0  0  0
   15.7598  -16.8085  -14.5282 C   0  0  0  0  0  0  0  0  0  0  0  0
   16.3021  -15.9471  -13.4264 N   0  0  0  0  0  0  0  0  0  0  0  0
   16.2928  -17.1264  -12.4997 C   0  0  0  0  0  0  0  0  0  0  0  0
   16.6236  -17.5114  -11.0882 C   0  0  0  0  0  0  0  0  0  0  0  0
   16.4939  -18.8530  -10.4298 C   0  0  0  0  0  0  0  0  0  0  0  0
   16.0013  -20.1408  -11.0204 C   0  0  0  0  0  0  0  0  0  0  0  0
   15.5168  -20.4053  -12.4152 C   0  0  0  0  0  0  0  0  0  0  0  0
   15.0014  -20.8808  -13.7411 C   0  0  0  0  0  0  0  0  0  0  0  0
   15.4052  -19.4471  -13.5639 C   0  0  0  0  0  0  0  0  0  0  0  0
   15.7505  -17.9879  -13.6014 C   0  0  0  0  0  0  0  0  0  0  0  0
   14.1331  -19.3927  -17.8335 H   0  0  0  0  0  0  0  0  0  0  0  0
   14.2767  -17.3035  -17.4956 H   0  0  0  0  0  0  0  0  0  0  0  0
   15.0341  -19.6364  -16.0442 H   0  0  0  0  0  0  0  0  0  0  0  0
   15.3527  -18.4138  -15.3775 H   0  0  0  0  0  0  0  0  0  0  0  0
   14.8202  -16.4420  -16.3945 H   0  0  0  0  0  0  0  0  0  0  0  0
   15.7691  -15.6290  -15.4550 H   0  0  0  0  0  0  0  0  0  0  0  0
   16.6921  -14.5039  -13.3027 H   0  0  0  0  0  0  0  0  0  0  0  0
   16.7831  -15.8318  -11.9223 H   0  0  0  0  0  0  0  0  0  0  0  0
   17.0173  -16.0706  -10.9501 H   0  0  0  0  0  0  0  0  0  0  0  0
   17.1342  -17.0739   -9.7474 H   0  0  0  0  0  0  0  0  0  0  0  0
   17.0309  -18.1417   -9.2233 H   0  0  0  0  0  0  0  0  0  0  0  0
   16.6693  -19.6697   -9.1839 H   0  0  0  0  0  0  0  0  0  0  0  0
   16.2772  -20.6947   -9.6541 H   0  0  0  0  0  0  0  0  0  0  0  0
   15.6559  -21.6001  -10.9828 H   0  0  0  0  0  0  0  0  0  0  0  0
   15.3100  -21.8179  -11.9550 H   0  0  0  0  0  0  0  0  0  0  0  0
   14.7457  -22.3233  -13.4191 H   0  0  0  0  0  0  0  0  0  0  0  0
   14.5747  -20.8553  -15.1790 H   0  0  0  0  0  0  0  0  0  0  0  0
   15.0622  -19.5822  -14.5934 H   0  0  0  0  0  0  0  0  0  0  0  0
   15.4167  -18.2658  -14.4846 H   0  0  0  0  0  0  0  0  0  0  0  0
  1  2  1  0
  2  3  1  0
  3  4  1  0
  4  5  1  0
  5  6  1  0
  6  7  1  0
  7  8  1  0
  8  9  1  0
  9 10  1  0
 10 11  1  0
 11 12  1  0
 12  3  1  0
 12  5  1  0
 11  9  1  0
  1 13  1  0
  1 14  1  0
  1 15  1  0
  2 16  1  0
  2 17  1  0
  3 18  1  0
  4 19  1  0
  5 20  1  0
  6 21  1  0
  6 22  1  0
  7 23  1  0
  7 24  1  0
  8 25  1  0
  8 26  1  0
  9 27  1  0
 10 28  1  0
 10 29  1  0
 11 30  1  0
 12 31  1  0
M  END
