
     RDKit          2D

 66 68  0  0  0  0  0  0  0  0999 V2000
   19.9092  -18.8753  -13.6068 C   0  0  0  0  0  0  0  0  0  0  0  0
   19.0151  -19.8520  -14.3113 N   0  0  0  0  0  0  0  0  0  0  0  0
   18.2616  -20.8824  -13.5233 C   0  0  0  0  0  0  0  0  0  0  0  0
   17.6573  -21.4097  -14.7908 O   0  0  0  0  0  0  0  0  0  0  0  0
   17.5081  -21.9126  -12.7353 N   0  0  0  0  0  0  0  0  0  0  0  0
   17.6488  -21.9660  -11.2430 C   0  0  0  0  0  0  0  0  0  0  0  0
   17.7895  -22.0194   -9.7506 N   0  0  0  0  0  0  0  0  0  0  0  0
   17.0361  -23.0496   -8.9626 C   0  0  0  0  0  0  0  0  0  0  0  0
   16.5324  -23.8355   -7.7883 C   0  0  0  0  0  0  0  0  0  0  0  0
   17.4936  -22.7035   -7.5766 C   0  0  0  0  0  0  0  0  0  0  0  0
   17.6343  -22.7570   -6.0841 C   0  0  0  0  0  0  0  0  0  0  0  0
   17.7750  -22.8104   -4.5917 C   0  0  0  0  0  0  0  0  0  0  0  0
   17.9157  -22.8638   -3.0994 C   0  0  0  0  0  0  0  0  0  0  0  0
   18.0564  -22.9172   -1.6068 C   0  0  0  0  0  0  0  0  0  0  0  0
   18.1971  -22.9706   -0.1145 O   0  0  0  0  0  0  0  0  0  0  0  0
   17.4437  -24.0010    0.6735 C   0  0  0  0  0  0  0  0  0  0  0  0
   16.6903  -25.0312    1.4615 C   0  0  0  0  0  0  0  0  0  0  0  0
   15.9369  -26.0615    2.2495 C   0  0  0  0  0  0  0  0  0  0  0  0
   17.2965  -24.5053    2.7287 C   0  0  0  0  0  0  0  0  0  0  0  0
   18.6837  -21.0426   -9.0461 As  0  0  0  0  0  3  0  0  0  0  0  0
   18.8244  -21.0960   -7.5536 O   0  0  0  0  0  0  0  0  0  0  0  0
   19.4372  -20.0123   -9.8340 C   0  0  0  0  0  0  0  0  0  0  0  0
   20.1907  -18.9821  -10.6219 O   0  0  0  0  0  0  0  0  0  0  0  0
   20.0498  -18.9282  -12.1143 O   0  0  0  0  0  0  0  0  0  0  0  0
   16.6140  -22.8894  -13.4399 C   0  0  0  0  0  0  0  0  0  0  0  0
   16.1102  -23.6751  -12.2656 C   0  0  0  0  0  0  0  0  0  0  0  0
   15.1490  -24.8070  -12.4773 C   0  0  0  0  0  0  0  0  0  0  0  0
   15.6527  -24.0213  -13.6515 C   0  0  0  0  0  0  0  0  0  0  0  0
   20.8035  -17.8985  -12.9022 H   0  0  0  0  0  0  0  0  0  0  0  0
   21.0618  -19.8239  -13.7545 H   0  0  0  0  0  0  0  0  0  0  0  0
   18.7568  -17.9267  -13.4590 H   0  0  0  0  0  0  0  0  0  0  0  0
   18.8744  -19.7986  -15.8037 H   0  0  0  0  0  0  0  0  0  0  0  0
   18.8660  -20.3549  -12.2558 H   0  0  0  0  0  0  0  0  0  0  0  0
   18.0110  -20.7841  -16.1074 H   0  0  0  0  0  0  0  0  0  0  0  0
   18.8783  -21.4746  -11.5066 H   0  0  0  0  0  0  0  0  0  0  0  0
   16.2828  -22.5120  -10.9499 H   0  0  0  0  0  0  0  0  0  0  0  0
   16.3168  -23.7536  -10.0748 H   0  0  0  0  0  0  0  0  0  0  0  0
   15.6382  -24.8123   -8.4927 H   0  0  0  0  0  0  0  0  0  0  0  0
   16.2565  -24.3517   -6.5718 H   0  0  0  0  0  0  0  0  0  0  0  0
   18.1926  -21.8636   -7.5357 H   0  0  0  0  0  0  0  0  0  0  0  0
   18.5849  -21.5976   -6.1323 H   0  0  0  0  0  0  0  0  0  0  0  0
   16.8006  -23.7985   -5.8775 H   0  0  0  0  0  0  0  0  0  0  0  0
   16.6799  -23.8331   -4.5251 H   0  0  0  0  0  0  0  0  0  0  0  0
   18.8702  -21.7876   -4.6584 H   0  0  0  0  0  0  0  0  0  0  0  0
   18.8703  -21.7077   -3.1479 H   0  0  0  0  0  0  0  0  0  0  0  0
   16.9611  -24.0199   -3.0507 H   0  0  0  0  0  0  0  0  0  0  0  0
   17.0943  -24.0670   -1.5574 H   0  0  0  0  0  0  0  0  0  0  0  0
   19.0185  -21.7674   -1.6564 H   0  0  0  0  0  0  0  0  0  0  0  0
   17.8486  -23.6148    1.3601 H   0  0  0  0  0  0  0  0  0  0  0  0
   16.8453  -24.5334   -0.5948 H   0  0  0  0  0  0  0  0  0  0  0  0
   16.0841  -25.5572    0.1943 H   0  0  0  0  0  0  0  0  0  0  0  0
   15.1835  -27.0918    3.0374 H   0  0  0  0  0  0  0  0  0  0  0  0
   15.3275  -26.5848    0.9827 H   0  0  0  0  0  0  0  0  0  0  0  0
   16.2399  -25.8290    3.0487 H   0  0  0  0  0  0  0  0  0  0  0  0
   17.9026  -23.9793    3.9960 H   0  0  0  0  0  0  0  0  0  0  0  0
   16.9216  -25.0899    3.2785 H   0  0  0  0  0  0  0  0  0  0  0  0
   17.7586  -23.8449    2.3615 H   0  0  0  0  0  0  0  0  0  0  0  0
   19.7186  -20.1192   -6.8491 H   0  0  0  0  0  0  0  0  0  0  0  0
   18.9859  -20.3755  -11.0534 H   0  0  0  0  0  0  0  0  0  0  0  0
   20.0348  -19.4794   -8.5656 H   0  0  0  0  0  0  0  0  0  0  0  0
   19.1557  -19.9049  -12.8190 H   0  0  0  0  0  0  0  0  0  0  0  0
   16.8072  -22.4430  -14.8588 H   0  0  0  0  0  0  0  0  0  0  0  0
   16.4613  -23.4665  -10.8223 H   0  0  0  0  0  0  0  0  0  0  0  0
   14.9558  -25.2535  -11.0583 H   0  0  0  0  0  0  0  0  0  0  0  0
   14.2548  -25.7838  -13.1818 H   0  0  0  0  0  0  0  0  0  0  0  0
   15.1952  -24.3674  -15.0375 H   0  0  0  0  0  0  0  0  0  0  0  0
  1  2  1  0
  2  3  1  0
  3  4  1  0
  3  5  1  0
  5  6  1  0
  6  7  1  0
  7  8  1  0
  8  9  1  0
  9 10  1  0
 10 11  1  0
 11 12  1  0
 12 13  1  0
 13 14  1  0
 14 15  1  0
 15 16  1  0
 16 17  1  0
 17 18  1  0
 17 19  1  0
  7 20  1  0
 20 21  1  0
 20 22  1  0
 22 23  1  0
 23 24  1  0
  5 25  1  0
 25 26  1  0
 26 27  1  0
 27 28  1  0
 10  8  1  0
 28 25  1  0
 28 26  1  0
  1 29  1  0
  1 30  1  0
  1 31  1  0
  2 32  1  0
  3 33  1  0
  4 34  1  0
  6 35  1  0
  6 36  1  0
  8 37  1  0
  9 38  1  0
  9 39  1  0
 10 40  1  0
 11 41  1  0
 11 42  1  0
 12 43  1  0
 12 44  1  0
 13 45  1  0
 13 46  1  0
 14 47  1  0
 14 48  1  0
 16 49  1  0
 16 50  1  0
 17 51  1  0
 18 52  1  0
 18 53  1  0
 18 54  1  0
 19 55  1  0
 19 56  1  0
 19 57  1  0
 21 58  1  0
 22 59  1  0
 22 60  1  0
 24 61  1  0
 25 62  1  0
 26 63  1  0
 27 64  1  0
 27 65  1  0
 28 66  1  0
M  END
