
     RDKit          2D

 32 34  0  0  0  0  0  0  0  0999 V2000
   20.5071  -20.0202  -13.8985 O   0  0  0  0  0  0  0  0  0  0  0  0
   19.9637  -20.4146  -12.5573 C   0  0  0  0  0  0  0  0  0  0  0  0
   19.4202  -20.8091  -11.2160 C   0  0  0  0  0  0  0  0  0  0  0  0
   18.8767  -21.2036   -9.8747 C   0  0  0  0  0  0  0  0  0  0  0  0
   18.3332  -21.5980   -8.5335 C   0  0  0  0  0  0  0  0  0  0  0  0
   17.7897  -21.9925   -7.1922 C   0  0  0  0  0  0  0  0  0  0  0  0
   16.3451  -22.1898   -7.5443 C   0  0  0  0  0  0  0  0  0  0  0  0
   16.8101  -22.4079   -6.1349 C   0  0  0  0  0  0  0  0  0  0  0  0
   17.2752  -22.6260   -4.7256 N   0  0  0  0  0  0  0  0  0  0  0  0
   15.8304  -22.8233   -5.0777 C   0  0  0  0  0  0  0  0  0  0  0  0
   15.2870  -23.2177   -3.7364 C   0  0  0  0  0  0  0  0  0  0  0  0
   14.3073  -23.6332   -2.6792 C   0  0  0  0  0  0  0  0  0  0  0  0
   13.8423  -23.4151   -4.0885 C   0  0  0  0  0  0  0  0  0  0  0  0
   19.5914  -19.9362  -15.0836 H   0  0  0  0  0  0  0  0  0  0  0  0
   18.5995  -20.5802  -13.1587 H   0  0  0  0  0  0  0  0  0  0  0  0
   21.3278  -20.2491  -11.9559 H   0  0  0  0  0  0  0  0  0  0  0  0
   18.0340  -20.4698  -11.6779 H   0  0  0  0  0  0  0  0  0  0  0  0
   20.8063  -21.1484  -10.7541 H   0  0  0  0  0  0  0  0  0  0  0  0
   20.2492  -21.0801   -9.2824 H   0  0  0  0  0  0  0  0  0  0  0  0
   17.5042  -21.3270  -10.4671 H   0  0  0  0  0  0  0  0  0  0  0  0
   19.7043  -21.4669   -7.9394 H   0  0  0  0  0  0  0  0  0  0  0  0
   17.1681  -21.6718   -9.2113 H   0  0  0  0  0  0  0  0  0  0  0  0
   19.0457  -21.9322   -6.3742 H   0  0  0  0  0  0  0  0  0  0  0  0
   14.8859  -22.5002   -7.3881 H   0  0  0  0  0  0  0  0  0  0  0  0
   16.2206  -21.9269   -8.8625 H   0  0  0  0  0  0  0  0  0  0  0  0
   18.3777  -22.6381   -3.7087 H   0  0  0  0  0  0  0  0  0  0  0  0
   14.6781  -22.8330   -6.0379 H   0  0  0  0  0  0  0  0  0  0  0  0
   16.5429  -23.1574   -2.9185 H   0  0  0  0  0  0  0  0  0  0  0  0
   15.2231  -23.7171   -1.4941 H   0  0  0  0  0  0  0  0  0  0  0  0
   13.0096  -24.0194   -2.0336 H   0  0  0  0  0  0  0  0  0  0  0  0
   12.3831  -23.7256   -3.9323 H   0  0  0  0  0  0  0  0  0  0  0  0
   13.7040  -23.1230   -5.5533 H   0  0  0  0  0  0  0  0  0  0  0  0
  1  2  1  0
  2  3  1  0
  3  4  1  0
  4  5  1  0
  5  6  1  0
  6  7  1  0
  7  8  1  0
  8  9  1  0
  9 10  1  0
 10 11  1  0
 11 12  1  0
 12 13  1  0
  8  6  1  0
 13 11  1  0
 10  8  1  0
  1 14  1  0
  2 15  1  0
  2 16  1  0
  3 17  1  0
  3 18  1  0
  4 19  1  0
  4 20  1  0
  5 21  1  0
  5 22  1  0
  6 23  1  0
  7 24  1  0
  7 25  1  0
  9 26  1  0
 10 27  1  0
 11 28  1  0
 12 29  1  0
 12 30  1  0
 13 31  1  0
 13 32  1  0
M  END
