
     RDKit          2D

 32 35  0  0  0  0  0  0  0  0999 V2000
   16.6306  -22.4759  -11.1210 C   0  0  0  0  0  0  0  0  0  0  0  0
   17.5045  -21.3675  -11.6289 C   0  0  0  0  0  0  0  0  0  0  0  0
   16.6525  -20.1833  -11.2799 C   0  0  0  0  0  0  0  0  0  0  0  0
   15.4970  -19.3841  -10.7546 C   0  0  0  0  0  0  0  0  0  0  0  0
   15.4827  -20.8804  -10.6509 C   0  0  0  0  0  0  0  0  0  0  0  0
   14.1581  -21.0822   -9.9765 O   0  0  0  0  0  0  0  0  0  0  0  0
   13.3062  -19.8980   -9.6275 O   0  0  0  0  0  0  0  0  0  0  0  0
   18.6600  -22.1668  -12.1542 C   0  0  0  0  0  0  0  0  0  0  0  0
   19.9324  -22.6853  -12.7561 C   0  0  0  0  0  0  0  0  0  0  0  0
   21.2136  -22.2790  -13.4220 C   0  0  0  0  0  0  0  0  0  0  0  0
   21.2279  -20.7827  -13.5257 C   0  0  0  0  0  0  0  0  0  0  0  0
   19.9555  -20.2642  -12.9238 C   0  0  0  0  0  0  0  0  0  0  0  0
   20.7330  -21.5094  -13.2317 C   0  0  0  0  0  0  0  0  0  0  0  0
   18.6743  -20.6705  -12.2579 C   0  0  0  0  0  0  0  0  0  0  0  0
   15.7567  -23.5842  -10.6132 H   0  0  0  0  0  0  0  0  0  0  0  0
   17.5354  -23.6105  -11.5005 H   0  0  0  0  0  0  0  0  0  0  0  0
   15.9586  -22.1874  -10.8037 H   0  0  0  0  0  0  0  0  0  0  0  0
   17.3956  -18.9605  -11.7298 H   0  0  0  0  0  0  0  0  0  0  0  0
   15.9696  -17.9982  -11.0799 H   0  0  0  0  0  0  0  0  0  0  0  0
   14.1773  -19.0662  -10.1162 H   0  0  0  0  0  0  0  0  0  0  0  0
   15.6358  -21.6624  -10.6768 H   0  0  0  0  0  0  0  0  0  0  0  0
   11.9816  -20.0997   -8.9531 H   0  0  0  0  0  0  0  0  0  0  0  0
   18.2539  -23.5806  -11.8602 H   0  0  0  0  0  0  0  0  0  0  0  0
   20.3336  -24.1266  -12.8634 H   0  0  0  0  0  0  0  0  0  0  0  0
   21.4787  -23.7549  -13.4591 H   0  0  0  0  0  0  0  0  0  0  0  0
   22.5502  -22.1813  -14.0957 H   0  0  0  0  0  0  0  0  0  0  0  0
   22.5615  -20.9978  -14.1777 H   0  0  0  0  0  0  0  0  0  0  0  0
   21.5209  -19.3313  -13.7657 H   0  0  0  0  0  0  0  0  0  0  0  0
   20.3839  -18.8593  -13.2284 H   0  0  0  0  0  0  0  0  0  0  0  0
   21.9251  -20.8591  -13.8689 H   0  0  0  0  0  0  0  0  0  0  0  0
   21.9117  -22.2639  -13.7715 H   0  0  0  0  0  0  0  0  0  0  0  0
   18.2954  -19.2222  -12.1622 H   0  0  0  0  0  0  0  0  0  0  0  0
  1  2  1  0
  2  3  1  0
  3  4  1  0
  4  5  1  0
  5  6  1  0
  6  7  1  0
  2  8  1  0
  8  9  1  0
  9 10  1  0
 10 11  1  0
 11 12  1  0
 12 13  1  0
 12 14  1  0
 14  2  1  0
  5  3  1  0
 14  8  1  0
 13  9  1  0
  1 15  1  0
  1 16  1  0
  1 17  1  0
  3 18  1  0
  4 19  1  0
  4 20  1  0
  5 21  1  0
  7 22  1  0
  8 23  1  0
  9 24  1  0
 10 25  1  0
 10 26  1  0
 11 27  1  0
 11 28  1  0
 12 29  1  0
 13 30  1  0
 13 31  1  0
 14 32  1  0
M  END
