
     RDKit          2D

 22 23  0  0  0  0  0  0  0  0999 V2000
   -0.2538   24.0109    6.2600 C   0  0  0  0  0  0  0  0  0  0  0  0
   -0.6549   23.6082    4.8718 C   0  0  0  0  0  0  0  0  0  0  0  0
   -2.0657   24.1171    4.8504 C   0  0  0  0  0  0  0  0  0  0  0  0
   -2.9084   23.9397    3.6222 C   0  0  0  0  0  0  0  0  0  0  0  0
   -4.1800   24.5884    4.0829 C   0  0  0  0  0  0  0  0  0  0  0  0
   -5.4516   25.2372    4.5435 C   0  0  0  0  0  0  0  0  0  0  0  0
   -6.7232   25.8859    5.0042 C   0  0  0  0  0  0  0  0  0  0  0  0
   -7.9058   25.9552    4.0841 O   0  0  0  0  0  0  0  0  0  0  0  0
   -6.8121   26.4653    6.3849 S   0  0  0  0  0  0  0  0  0  0  0  0
   -1.4975   23.4308    3.6437 C   0  0  0  0  0  0  0  0  0  0  0  0
    0.1473   24.4136    7.6481 H   0  0  0  0  0  0  0  0  0  0  0  0
    1.1081   23.4230    6.0371 H   0  0  0  0  0  0  0  0  0  0  0  0
   -1.6156   24.5989    6.4829 H   0  0  0  0  0  0  0  0  0  0  0  0
    0.6168   22.9595    4.4112 H   0  0  0  0  0  0  0  0  0  0  0  0
   -2.6339   24.8034    6.0571 H   0  0  0  0  0  0  0  0  0  0  0  0
   -3.3094   23.5370    2.2341 H   0  0  0  0  0  0  0  0  0  0  0  0
   -4.8110   24.2953    2.7540 H   0  0  0  0  0  0  0  0  0  0  0  0
   -3.5490   24.8816    5.4117 H   0  0  0  0  0  0  0  0  0  0  0  0
   -6.0832   24.9425    3.2153 H   0  0  0  0  0  0  0  0  0  0  0  0
   -4.8200   25.5319    5.8718 H   0  0  0  0  0  0  0  0  0  0  0  0
   -8.0836   27.1141    6.8456 H   0  0  0  0  0  0  0  0  0  0  0  0
   -0.9293   22.7445    2.4370 H   0  0  0  0  0  0  0  0  0  0  0  0
  1  2  1  0
  2  3  1  0
  3  4  1  0
  4  5  1  0
  5  6  1  0
  6  7  1  0
  7  8  2  0
  7  9  1  0
  4 10  1  0
 10  2  1  0
 10  3  1  0
  1 11  1  0
  1 12  1  0
  1 13  1  0
  2 14  1  0
  3 15  1  0
  4 16  1  0
  5 17  1  0
  5 18  1  0
  6 19  1  0
  6 20  1  0
  9 21  1  0
 10 22  1  0
M  END
