
     RDKit          2D

 60 70  0  0  0  0  0  0  0  0999 V2000
   15.2919  -20.2652  -13.3172 O   0  0  0  0  0  0  0  0  0  0  0  0
   15.6645  -19.7218  -14.6647 C   0  0  0  0  0  0  0  0  0  0  0  0
   14.5386  -18.7532  -14.8753 C   0  0  0  0  0  0  0  0  0  0  0  0
   15.6011  -18.9075  -15.9229 N   0  0  0  0  0  0  0  0  0  0  0  0
   16.1779  -18.5265  -17.2540 C   0  0  0  0  0  0  0  0  0  0  0  0
   16.7548  -18.1454  -18.5852 C   0  0  0  0  0  0  0  0  0  0  0  0
   17.3316  -17.7644  -19.9165 C   0  0  0  0  0  0  0  0  0  0  0  0
   17.9085  -17.3834  -21.2477 C   0  0  0  0  0  0  0  0  0  0  0  0
   19.8000  -15.3895  -22.1662 C   0  0  0  0  0  0  0  0  0  0  0  0
   19.3888  -16.1331  -23.4023 C   0  0  0  0  0  0  0  0  0  0  0  0
   18.8119  -16.5141  -22.0711 C   0  0  0  0  0  0  0  0  0  0  0  0
   18.0041  -17.5928  -22.7299 C   0  0  0  0  0  0  0  0  0  0  0  0
   18.5810  -17.2118  -24.0611 C   0  0  0  0  0  0  0  0  0  0  0  0
   18.9291  -17.1229  -25.5174 C   0  0  0  0  0  0  0  0  0  0  0  0
   19.6954  -16.4757  -26.6328 C   0  0  0  0  0  0  0  0  0  0  0  0
   19.0644  -17.4190  -27.6136 O   0  0  0  0  0  0  0  0  0  0  0  0
   18.2981  -18.0662  -26.4982 C   0  0  0  0  0  0  0  0  0  0  0  0
   17.7884  -18.9025  -27.6344 C   0  0  0  0  0  0  0  0  0  0  0  0
   17.4113  -19.6131  -28.9004 O   0  0  0  0  0  0  0  0  0  0  0  0
   16.8047  -20.0341  -27.5948 C   0  0  0  0  0  0  0  0  0  0  0  0
   16.0877  -20.6090  -26.4093 C   0  0  0  0  0  0  0  0  0  0  0  0
   16.1774  -20.1943  -24.9705 C   0  0  0  0  0  0  0  0  0  0  0  0
   15.1936  -21.3260  -24.9310 C   0  0  0  0  0  0  0  0  0  0  0  0
   14.2099  -22.4576  -24.8914 C   0  0  0  0  0  0  0  0  0  0  0  0
   14.3742  -22.5484  -23.4032 C   0  0  0  0  0  0  0  0  0  0  0  0
   13.3905  -23.6801  -23.3636 C   0  0  0  0  0  0  0  0  0  0  0  0
   13.2262  -23.5893  -24.8518 C   0  0  0  0  0  0  0  0  0  0  0  0
   17.0062  -19.1021  -24.3620 C   0  0  0  0  0  0  0  0  0  0  0  0
   17.9500  -18.1550  -25.0419 C   0  0  0  0  0  0  0  0  0  0  0  0
   16.1526  -21.3056  -12.6640 H   0  0  0  0  0  0  0  0  0  0  0  0
   16.9198  -20.5015  -14.9221 H   0  0  0  0  0  0  0  0  0  0  0  0
   13.6779  -17.7128  -15.5285 H   0  0  0  0  0  0  0  0  0  0  0  0
   13.7750  -18.9603  -13.6010 H   0  0  0  0  0  0  0  0  0  0  0  0
   16.9831  -17.4455  -16.5957 H   0  0  0  0  0  0  0  0  0  0  0  0
   15.3728  -19.6074  -17.9123 H   0  0  0  0  0  0  0  0  0  0  0  0
   17.7097  -17.2105  -17.9039 H   0  0  0  0  0  0  0  0  0  0  0  0
   15.7999  -19.0804  -19.2666 H   0  0  0  0  0  0  0  0  0  0  0  0
   16.2205  -18.4976  -20.6078 H   0  0  0  0  0  0  0  0  0  0  0  0
   18.4428  -17.0313  -19.2251 H   0  0  0  0  0  0  0  0  0  0  0  0
   20.6077  -14.3109  -21.5074 H   0  0  0  0  0  0  0  0  0  0  0  0
   20.1551  -15.4859  -24.5177 H   0  0  0  0  0  0  0  0  0  0  0  0
   17.0391  -18.7356  -22.8419 H   0  0  0  0  0  0  0  0  0  0  0  0
   20.4616  -15.8285  -27.7480 H   0  0  0  0  0  0  0  0  0  0  0  0
   20.3263  -15.5325  -25.6519 H   0  0  0  0  0  0  0  0  0  0  0  0
   18.6759  -18.0616  -28.5036 H   0  0  0  0  0  0  0  0  0  0  0  0
   16.0665  -21.0634  -28.3985 H   0  0  0  0  0  0  0  0  0  0  0  0
   15.5780  -21.4453  -27.5455 H   0  0  0  0  0  0  0  0  0  0  0  0
   15.5699  -21.1502  -26.1362 H   0  0  0  0  0  0  0  0  0  0  0  0
   15.8057  -20.3783  -23.8286 H   0  0  0  0  0  0  0  0  0  0  0  0
   14.9045  -20.8406  -23.8553 H   0  0  0  0  0  0  0  0  0  0  0  0
   15.3834  -21.6444  -25.6368 H   0  0  0  0  0  0  0  0  0  0  0  0
   14.0455  -22.3668  -26.3796 H   0  0  0  0  0  0  0  0  0  0  0  0
   14.5386  -22.6393  -21.9150 H   0  0  0  0  0  0  0  0  0  0  0  0
   15.3707  -21.4362  -23.2611 H   0  0  0  0  0  0  0  0  0  0  0  0
   12.4068  -24.8118  -23.3240 H   0  0  0  0  0  0  0  0  0  0  0  0
   13.5549  -23.7709  -21.8754 H   0  0  0  0  0  0  0  0  0  0  0  0
   13.0618  -23.4985  -26.3400 H   0  0  0  0  0  0  0  0  0  0  0  0
   12.2424  -24.7210  -24.8122 H   0  0  0  0  0  0  0  0  0  0  0  0
   16.3783  -19.5522  -23.0763 H   0  0  0  0  0  0  0  0  0  0  0  0
   17.4083  -18.3672  -23.1178 H   0  0  0  0  0  0  0  0  0  0  0  0
  1  2  1  0
  2  3  1  0
  3  4  1  0
  4  5  1  0
  5  6  1  0
  6  7  1  0
  7  8  1  0
  8  9  1  0
  9 10  1  0
 10 11  1  0
 11 12  1  0
 12 13  1  0
 13 14  1  0
 14 15  1  0
 15 16  1  0
 16 17  1  0
 17 18  1  0
 18 19  1  0
 19 20  1  0
 20 21  1  0
 21 22  1  0
 22 23  1  0
 23 24  1  0
 24 25  1  0
 25 26  1  0
 26 27  1  0
 22 28  1  0
 28 29  1  0
  4  2  1  0
 11  8  1  0
 29 13  1  0
 12  8  1  0
 17 14  1  0
 20 18  1  0
 27 24  1  0
 11  9  1  0
 29 14  1  0
 13 10  1  0
 29 17  1  0
  1 30  1  0
  2 31  1  0
  3 32  1  0
  3 33  1  0
  5 34  1  0
  5 35  1  0
  6 36  1  0
  6 37  1  0
  7 38  1  0
  7 39  1  0
  9 40  1  0
 10 41  1  0
 12 42  1  0
 15 43  1  0
 15 44  1  0
 18 45  1  0
 20 46  1  0
 21 47  1  0
 21 48  1  0
 22 49  1  0
 23 50  1  0
 23 51  1  0
 24 52  1  0
 25 53  1  0
 25 54  1  0
 26 55  1  0
 26 56  1  0
 27 57  1  0
 27 58  1  0
 28 59  1  0
 28 60  1  0
M  END
