
     RDKit          2D

 65 68  0  0  0  0  0  0  0  0999 V2000
   10.0447  -25.1409  -16.1300 C   0  0  0  0  0  0  0  0  0  0  0  0
   11.1348  -24.3300  -16.7657 C   0  0  0  0  0  0  0  0  0  0  0  0
   12.2250  -23.5192  -17.4015 C   0  0  0  0  0  0  0  0  0  0  0  0
   13.3151  -22.7083  -18.0371 C   0  0  0  0  0  0  0  0  0  0  0  0
   14.4052  -21.8975  -18.6729 C   0  0  0  0  0  0  0  0  0  0  0  0
   15.4953  -21.0866  -19.3086 C   0  0  0  0  0  0  0  0  0  0  0  0
   16.5854  -20.2757  -19.9443 C   0  0  0  0  0  0  0  0  0  0  0  0
   17.6755  -19.4648  -20.5800 C   0  0  0  0  0  0  0  0  0  0  0  0
   18.7657  -18.6540  -21.2158 C   0  0  0  0  0  0  0  0  0  0  0  0
   19.8557  -17.8432  -21.8515 C   0  0  0  0  0  0  0  0  0  0  0  0
   20.9459  -17.0323  -22.4872 O   0  0  0  0  0  0  0  0  0  0  0  0
   14.7354  -21.2957  -17.3391 C   0  0  0  0  0  0  0  0  0  0  0  0
   13.7140  -21.9839  -16.4829 C   0  0  0  0  0  0  0  0  0  0  0  0
   14.6710  -21.0055  -15.8689 C   0  0  0  0  0  0  0  0  0  0  0  0
   13.6496  -21.6937  -15.0126 C   0  0  0  0  0  0  0  0  0  0  0  0
   12.5074  -22.6558  -14.8727 C   0  0  0  0  0  0  0  0  0  0  0  0
   11.8806  -22.8856  -13.5294 C   0  0  0  0  0  0  0  0  0  0  0  0
   12.3959  -22.1533  -12.3261 C   0  0  0  0  0  0  0  0  0  0  0  0
   13.5381  -21.1911  -12.4660 C   0  0  0  0  0  0  0  0  0  0  0  0
   14.1650  -20.9613  -13.8093 C   0  0  0  0  0  0  0  0  0  0  0  0
   13.5436  -21.4087  -13.4105 C   0  0  0  0  0  0  0  0  0  0  0  0
   12.8948  -21.8669  -12.9561 C   0  0  0  0  0  0  0  0  0  0  0  0
   13.4529  -20.8067  -10.5185 C   0  0  0  0  0  0  0  0  0  0  0  0
   14.1147  -19.9800   -9.4563 O   0  0  0  0  0  0  0  0  0  0  0  0
   12.4105  -22.3414  -13.1792 C   0  0  0  0  0  0  0  0  0  0  0  0
    8.9546  -25.9518  -15.4943 H   0  0  0  0  0  0  0  0  0  0  0  0
    9.7133  -25.7413  -17.4641 H   0  0  0  0  0  0  0  0  0  0  0  0
   10.3761  -24.5405  -14.7960 H   0  0  0  0  0  0  0  0  0  0  0  0
   11.6415  -24.2446  -15.3564 H   0  0  0  0  0  0  0  0  0  0  0  0
   10.4904  -24.5157  -18.1075 H   0  0  0  0  0  0  0  0  0  0  0  0
   12.6849  -22.8224  -16.1553 H   0  0  0  0  0  0  0  0  0  0  0  0
   11.8954  -24.1216  -18.7351 H   0  0  0  0  0  0  0  0  0  0  0  0
   13.3445  -22.5016  -17.2678 H   0  0  0  0  0  0  0  0  0  0  0  0
   12.9861  -23.3114  -19.3706 H   0  0  0  0  0  0  0  0  0  0  0  0
   14.0750  -22.4992  -20.0066 H   0  0  0  0  0  0  0  0  0  0  0  0
   15.1651  -21.6884  -20.6424 H   0  0  0  0  0  0  0  0  0  0  0  0
   15.8310  -20.5791  -18.4000 H   0  0  0  0  0  0  0  0  0  0  0  0
   16.9156  -19.6739  -18.6106 H   0  0  0  0  0  0  0  0  0  0  0  0
   16.2553  -20.8776  -21.2780 H   0  0  0  0  0  0  0  0  0  0  0  0
   17.7512  -20.4508  -21.7080 H   0  0  0  0  0  0  0  0  0  0  0  0
   17.5999  -18.4789  -19.4521 H   0  0  0  0  0  0  0  0  0  0  0  0
   19.1056  -18.0634  -19.8795 H   0  0  0  0  0  0  0  0  0  0  0  0
   18.4258  -19.2446  -22.5521 H   0  0  0  0  0  0  0  0  0  0  0  0
   19.5106  -18.4277  -23.1890 H   0  0  0  0  0  0  0  0  0  0  0  0
   20.2010  -17.2585  -20.5140 H   0  0  0  0  0  0  0  0  0  0  0  0
   21.7758  -16.1045  -21.6503 H   0  0  0  0  0  0  0  0  0  0  0  0
   15.5694  -20.6063  -17.4971 H   0  0  0  0  0  0  0  0  0  0  0  0
   13.0065  -22.7477  -17.1091 H   0  0  0  0  0  0  0  0  0  0  0  0
   15.6280  -20.0272  -15.2549 H   0  0  0  0  0  0  0  0  0  0  0  0
   11.4089  -23.6586  -15.0672 H   0  0  0  0  0  0  0  0  0  0  0  0
   12.7691  -22.7746  -16.3450 H   0  0  0  0  0  0  0  0  0  0  0  0
   10.7383  -23.8478  -13.3896 H   0  0  0  0  0  0  0  0  0  0  0  0
   12.6684  -21.5944  -10.9611 H   0  0  0  0  0  0  0  0  0  0  0  0
   11.4130  -22.7886  -11.3879 H   0  0  0  0  0  0  0  0  0  0  0  0
   14.6674  -20.2039  -12.4516 H   0  0  0  0  0  0  0  0  0  0  0  0
   13.5537  -20.8345  -11.0091 H   0  0  0  0  0  0  0  0  0  0  0  0
   15.3072  -19.9991  -13.9491 H   0  0  0  0  0  0  0  0  0  0  0  0
   14.9739  -19.9022  -12.3044 H   0  0  0  0  0  0  0  0  0  0  0  0
   14.1756  -20.2927  -11.0095 H   0  0  0  0  0  0  0  0  0  0  0  0
   12.2576  -21.7696  -10.1855 H   0  0  0  0  0  0  0  0  0  0  0  0
   12.5198  -21.3780   -9.4924 H   0  0  0  0  0  0  0  0  0  0  0  0
   14.5185  -20.0523  -11.2570 H   0  0  0  0  0  0  0  0  0  0  0  0
   13.6376  -20.0613   -8.0365 H   0  0  0  0  0  0  0  0  0  0  0  0
   11.3413  -22.6802  -10.6623 H   0  0  0  0  0  0  0  0  0  0  0  0
   10.6476  -23.5885  -11.9528 H   0  0  0  0  0  0  0  0  0  0  0  0
  1  2  1  0
  2  3  1  0
  3  4  1  0
  4  5  1  0
  5  6  1  0
  6  7  1  0
  7  8  1  0
  8  9  1  0
  9 10  1  0
 10 11  1  0
  5 12  1  0
 12 13  1  0
 13 14  1  0
 14 15  1  0
 15 16  1  0
 16 17  1  0
 17 18  1  0
 18 19  1  0
 19 20  1  0
 20 21  1  0
 21 22  1  0
 22 23  1  0
 23 24  1  0
 22 25  1  0
 14 12  1  0
 20 15  1  0
 15 13  1  0
 25 17  1  0
  1 26  1  0
  1 27  1  0
  1 28  1  0
  2 29  1  0
  2 30  1  0
  3 31  1  0
  3 32  1  0
  4 33  1  0
  4 34  1  0
  5 35  1  0
  6 36  1  0
  6 37  1  0
  7 38  1  0
  7 39  1  0
  8 40  1  0
  8 41  1  0
  9 42  1  0
  9 43  1  0
 10 44  1  0
 10 45  1  0
 11 46  1  0
 12 47  1  0
 13 48  1  0
 14 49  1  0
 16 50  1  0
 16 51  1  0
 17 52  1  0
 18 53  1  0
 18 54  1  0
 19 55  1  0
 19 56  1  0
 20 57  1  0
 21 58  1  0
 21 59  1  0
 22 60  1  0
 23 61  1  0
 23 62  1  0
 24 63  1  0
 25 64  1  0
 25 65  1  0
M  END
