
     RDKit          2D

100111  0  0  0  0  0  0  0  0999 V2000
    7.7220   27.7543   13.6833 C   0  0  0  0  0  0  0  0  0  0  0  0
    7.2576   26.3700   13.3393 C   0  0  0  0  0  0  0  0  0  0  0  0
    6.7933   24.9857   12.9954 C   0  0  0  0  0  0  0  0  0  0  0  0
    6.3291   23.6016   12.6516 C   0  0  0  0  0  0  0  0  0  0  0  0
    5.8647   22.2173   12.3076 C   0  0  0  0  0  0  0  0  0  0  0  0
    5.4004   20.8331   11.9637 C   0  0  0  0  0  0  0  0  0  0  0  0
    6.6892   21.6617   13.4309 C   0  0  0  0  0  0  0  0  0  0  0  0
    7.3050   20.6662   14.3687 C   0  0  0  0  0  0  0  0  0  0  0  0
    6.3750   20.2020   13.2872 C   0  0  0  0  0  0  0  0  0  0  0  0
    5.5041   24.1572   11.5287 C   0  0  0  0  0  0  0  0  0  0  0  0
    5.9687   25.5414   11.8724 C   0  0  0  0  0  0  0  0  0  0  0  0
    5.1438   26.0970   10.7496 C   0  0  0  0  0  0  0  0  0  0  0  0
    4.3189   26.6528    9.6267 C   0  0  0  0  0  0  0  0  0  0  0  0
    4.0641   28.0245    9.0758 C   0  0  0  0  0  0  0  0  0  0  0  0
    3.2392   28.5801    7.9529 C   0  0  0  0  0  0  0  0  0  0  0  0
    3.0393   29.9842    7.4648 C   0  0  0  0  0  0  0  0  0  0  0  0
    3.3288   31.4518    7.5760 C   0  0  0  0  0  0  0  0  0  0  0  0
    2.1070   31.7547    6.7602 C   0  0  0  0  0  0  0  0  0  0  0  0
    2.3965   33.2223    6.8715 N   0  0  0  0  0  0  0  0  0  0  0  0
    3.6183   32.9194    7.6873 O   0  0  0  0  0  0  0  0  0  0  0  0
    2.2435   30.6215    6.3644 O   0  0  0  0  0  0  0  0  0  0  0  0
    1.3182   30.1185    5.2964 C   0  0  0  0  0  0  0  0  0  0  0  0
    0.4761   29.2691    4.3911 C   0  0  0  0  0  0  0  0  0  0  0  0
    0.9087   28.0429    5.1391 C   0  0  0  0  0  0  0  0  0  0  0  0
    0.6192   26.5753    5.0278 C   0  0  0  0  0  0  0  0  0  0  0  0
    1.7508   28.8923    6.0444 O   0  0  0  0  0  0  0  0  0  0  0  0
    1.7181   27.3101    6.2727 C   0  0  0  0  0  0  0  0  0  0  0  0
    1.5157   28.7317    5.7785 Mg  0  0  0  0  0  2  0  0  0  0  0  0
    1.5206   28.6967    5.7906 C   0  0  0  0  0  0  0  0  0  0  0  0
    2.3481   31.3436    6.3720 C   0  0  0  0  0  0  0  0  0  0  0  0
    2.4768   32.8351    6.2786 C   0  0  0  0  0  0  0  0  0  0  0  0
    2.6053   34.3267    6.1852 C   0  0  0  0  0  0  0  0  0  0  0  0
    3.2616   34.3546    7.5337 C   0  0  0  0  0  0  0  0  0  0  0  0
    1.9491   34.2987    4.8366 C   0  0  0  0  0  0  0  0  0  0  0  0
    1.2929   34.2709    3.4881 O   0  0  0  0  0  0  0  0  0  0  0  0
    2.0777   35.7903    4.7432 C   0  0  0  0  0  0  0  0  0  0  0  0
    2.5172   37.0960    5.3366 C   0  0  0  0  0  0  0  0  0  0  0  0
    2.7339   35.8182    6.0918 C   0  0  0  0  0  0  0  0  0  0  0  0
    2.7263   27.2315    7.5429 C   0  0  0  0  0  0  0  0  0  0  0  0
    2.4802   25.7476    7.4885 N   0  0  0  0  0  0  0  0  0  0  0  0
    1.8677   24.4938    6.9383 C   0  0  0  0  0  0  0  0  0  0  0  0
    2.9426   24.6827    8.2460 N   0  0  0  0  0  0  0  0  0  0  0  0
    3.8543   25.2685    9.2830 C   0  0  0  0  0  0  0  0  0  0  0  0
    4.6792   24.7129   10.4058 C   0  0  0  0  0  0  0  0  0  0  0  0
    1.5487   25.8202    6.3149 C   0  0  0  0  0  0  0  0  0  0  0  0
    8.1863   29.1385   14.0272 H   0  0  0  0  0  0  0  0  0  0  0  0
    8.5434   27.1991   14.8088 H   0  0  0  0  0  0  0  0  0  0  0  0
    6.9005   28.3095   12.5577 H   0  0  0  0  0  0  0  0  0  0  0  0
    6.4930   27.0906   12.2687 H   0  0  0  0  0  0  0  0  0  0  0  0
    8.0850   25.8141   14.4602 H   0  0  0  0  0  0  0  0  0  0  0  0
    6.1102   25.8592   11.9853 H   0  0  0  0  0  0  0  0  0  0  0  0
    7.6133   24.4308   14.1223 H   0  0  0  0  0  0  0  0  0  0  0  0
    7.2044   23.2187   13.8079 H   0  0  0  0  0  0  0  0  0  0  0  0
    4.9899   22.6000   11.1508 H   0  0  0  0  0  0  0  0  0  0  0  0
    4.9361   19.4488   11.6198 H   0  0  0  0  0  0  0  0  0  0  0  0
    4.5806   21.3880   10.8368 H   0  0  0  0  0  0  0  0  0  0  0  0
    6.0835   19.9596   12.9739 H   0  0  0  0  0  0  0  0  0  0  0  0
    7.3742   22.8230   14.0882 H   0  0  0  0  0  0  0  0  0  0  0  0
    8.1194   21.5871   15.2282 H   0  0  0  0  0  0  0  0  0  0  0  0
    7.6381   19.3508   15.0081 H   0  0  0  0  0  0  0  0  0  0  0  0
    6.3851   18.7254   13.5510 H   0  0  0  0  0  0  0  0  0  0  0  0
    5.4319   19.8885   12.1637 H   0  0  0  0  0  0  0  0  0  0  0  0
    4.9425   22.8510   11.0507 H   0  0  0  0  0  0  0  0  0  0  0  0
    6.3293   26.9830   12.0766 H   0  0  0  0  0  0  0  0  0  0  0  0
    6.8815   25.3372   13.0450 H   0  0  0  0  0  0  0  0  0  0  0  0
    5.6084   27.4813   11.0932 H   0  0  0  0  0  0  0  0  0  0  0  0
    5.1295   27.5838   10.4787 H   0  0  0  0  0  0  0  0  0  0  0  0
    4.4094   29.4725    9.2598 H   0  0  0  0  0  0  0  0  0  0  0  0
    5.0025   28.4137   10.1793 H   0  0  0  0  0  0  0  0  0  0  0  0
    4.1840   28.8701    9.0813 H   0  0  0  0  0  0  0  0  0  0  0  0
    3.9835   30.2870    8.5903 H   0  0  0  0  0  0  0  0  0  0  0  0
    4.5505   31.1489    8.3918 H   0  0  0  0  0  0  0  0  0  0  0  0
    0.8591   31.8765    5.9369 H   0  0  0  0  0  0  0  0  0  0  0  0
    2.3965   33.2223    6.8715 H   0  0  0  0  0  0  0  0  0  0  0  0
    2.0155   34.6363    6.5467 H   0  0  0  0  0  0  0  0  0  0  0  0
   -0.3660   28.4197    3.4859 H   0  0  0  0  0  0  0  0  0  0  0  0
    0.0434   30.4953    3.6432 H   0  0  0  0  0  0  0  0  0  0  0  0
    0.2220   25.1512    4.7749 H   0  0  0  0  0  0  0  0  0  0  0  0
   -0.2822   26.8418    3.8588 H   0  0  0  0  0  0  0  0  0  0  0  0
    1.4237   25.9618    6.1351 H   0  0  0  0  0  0  0  0  0  0  0  0
    3.1462   29.7403    7.6396 H   0  0  0  0  0  0  0  0  0  0  0  0
    1.4015   31.1693    5.2216 H   0  0  0  0  0  0  0  0  0  0  0  0
    3.2893   31.6972    7.4851 H   0  0  0  0  0  0  0  0  0  0  0  0
    3.4255   33.0091    7.4273 H   0  0  0  0  0  0  0  0  0  0  0  0
    1.5366   32.8430    5.1097 H   0  0  0  0  0  0  0  0  0  0  0  0
    3.9178   34.3824    8.8823 H   0  0  0  0  0  0  0  0  0  0  0  0
    2.9178   35.7741    7.8750 H   0  0  0  0  0  0  0  0  0  0  0  0
    3.6054   32.9349    7.1924 H   0  0  0  0  0  0  0  0  0  0  0  0
    1.6656   32.8448    4.6010 H   0  0  0  0  0  0  0  0  0  0  0  0
    1.0753   35.5488    2.7333 H   0  0  0  0  0  0  0  0  0  0  0  0
    1.4771   36.1495    3.4164 H   0  0  0  0  0  0  0  0  0  0  0  0
    2.0972   38.0334    4.2435 H   0  0  0  0  0  0  0  0  0  0  0  0
    3.1025   38.0761    6.3096 H   0  0  0  0  0  0  0  0  0  0  0  0
    3.3905   36.4028    7.3072 H   0  0  0  0  0  0  0  0  0  0  0  0
    3.6578   27.1588    8.7164 H   0  0  0  0  0  0  0  0  0  0  0  0
    1.6983   23.0039    6.9805 H   0  0  0  0  0  0  0  0  0  0  0  0
    2.8290   23.1911    8.3582 H   0  0  0  0  0  0  0  0  0  0  0  0
    3.7408   23.7770    9.3952 H   0  0  0  0  0  0  0  0  0  0  0  0
    4.2147   23.3287   10.0622 H   0  0  0  0  0  0  0  0  0  0  0  0
    0.6216   25.3294    5.2427 H   0  0  0  0  0  0  0  0  0  0  0  0
  1  2  1  0
  2  3  1  0
  3  4  1  0
  4  5  1  0
  5  6  1  0
  5  7  1  0
  7  8  1  0
  8  9  1  0
  4 10  1  0
 10 11  1  0
 11 12  1  0
 12 13  1  0
 13 14  1  0
 14 15  1  0
 15 16  1  0
 16 17  1  0
 17 18  1  0
 18 19  1  0
 19 20  1  0
 16 21  1  0
 21 22  1  0
 22 23  1  0
 23 24  1  0
 24 25  1  0
 24 26  1  0
 24 27  1  0
 27 28  1  0
 28 29  1  0
 29 30  1  0
 30 31  1  0
 31 32  1  0
 32 33  1  0
 32 34  1  0
 34 35  1  0
 34 36  1  0
 36 37  1  0
 37 38  1  0
 27 39  1  0
 39 40  1  0
 40 41  1  0
 41 42  1  0
 42 43  1  0
 43 44  1  0
 41 45  1  0
  9  7  1  0
 44 10  1  0
 44 12  1  0
 43 13  1  0
 39 15  1  0
 45 40  1  0
 20 17  1  0
 26 22  1  0
 45 27  1  0
 29 22  1  0
 38 32  1  0
 38 36  1  0
  1 46  1  0
  1 47  1  0
  1 48  1  0
  2 49  1  0
  2 50  1  0
  3 51  1  0
  3 52  1  0
  4 53  1  0
  5 54  1  0
  6 55  1  0
  6 56  1  0
  6 57  1  0
  7 58  1  0
  8 59  1  0
  8 60  1  0
  9 61  1  0
  9 62  1  0
 10 63  1  0
 11 64  1  0
 11 65  1  0
 12 66  1  0
 13 67  1  0
 14 68  1  0
 14 69  1  0
 15 70  1  0
 16 71  1  0
 17 72  1  0
 18 73  1  0
 18 74  1  0
 19 75  1  0
 23 76  1  0
 23 77  1  0
 25 78  1  0
 25 79  1  0
 25 80  1  0
 29 81  1  0
 30 82  1  0
 30 83  1  0
 31 84  1  0
 31 85  1  0
 33 86  1  0
 33 87  1  0
 33 88  1  0
 34 89  1  0
 35 90  1  0
 36 91  1  0
 37 92  1  0
 37 93  1  0
 38 94  1  0
 39 95  1  0
 41 96  1  0
 42 97  1  0
 43 98  1  0
 44 99  1  0
 45100  1  0
M  END
