
     RDKit          2D

 69 73  0  0  0  0  0  0  0  0999 V2000
   21.5780  -16.0334   -7.2053 C   0  0  0  0  0  0  0  0  0  0  0  0
   20.6367  -17.1905   -7.3631 C   0  0  0  0  0  0  0  0  0  0  0  0
   20.4252  -17.8065   -8.7144 C   0  0  0  0  0  0  0  0  0  0  0  0
   20.2138  -18.4223  -10.0657 C   0  0  0  0  0  0  0  0  0  0  0  0
   20.0024  -19.0382  -11.4170 C   0  0  0  0  0  0  0  0  0  0  0  0
   19.7909  -19.6541  -12.7682 C   0  0  0  0  0  0  0  0  0  0  0  0
   19.5795  -20.2700  -14.1196 C   0  0  0  0  0  0  0  0  0  0  0  0
   20.3094  -19.7288  -15.3130 C   0  0  0  0  0  0  0  0  0  0  0  0
   18.8300  -20.6380  -12.1695 C   0  0  0  0  0  0  0  0  0  0  0  0
   17.8691  -21.6220  -11.5706 C   0  0  0  0  0  0  0  0  0  0  0  0
   17.0965  -22.2424  -10.4445 C   0  0  0  0  0  0  0  0  0  0  0  0
   16.1376  -23.3949  -10.4916 C   0  0  0  0  0  0  0  0  0  0  0  0
   16.1331  -23.0161   -9.0403 C   0  0  0  0  0  0  0  0  0  0  0  0
   16.1286  -22.6372   -7.5889 N   0  0  0  0  0  0  0  0  0  0  0  0
   15.2737  -23.3967   -6.6182 C   0  0  0  0  0  0  0  0  0  0  0  0
   15.6061  -22.6659   -5.3512 C   0  0  0  0  0  0  0  0  0  0  0  0
   15.4307  -22.4831   -3.8727 C   0  0  0  0  0  0  0  0  0  0  0  0
   14.4619  -23.6279   -3.8461 C   0  0  0  0  0  0  0  0  0  0  0  0
   13.4930  -24.7728   -3.8195 O   0  0  0  0  0  0  0  0  0  0  0  0
   14.6373  -23.8107   -5.3245 C   0  0  0  0  0  0  0  0  0  0  0  0
   15.7145  -24.2117  -11.6765 C   0  0  0  0  0  0  0  0  0  0  0  0
   16.1458  -24.0776  -13.1068 C   0  0  0  0  0  0  0  0  0  0  0  0
   17.1067  -23.0937  -13.7057 C   0  0  0  0  0  0  0  0  0  0  0  0
   18.0249  -22.2122  -14.4993 C   0  0  0  0  0  0  0  0  0  0  0  0
   17.8737  -22.0008  -13.0220 C   0  0  0  0  0  0  0  0  0  0  0  0
   19.2492  -19.4031   -9.4677 C   0  0  0  0  0  0  0  0  0  0  0  0
   18.4156  -20.1146   -8.4435 C   0  0  0  0  0  0  0  0  0  0  0  0
   19.2912  -18.9680   -8.0328 C   0  0  0  0  0  0  0  0  0  0  0  0
   21.7895  -15.4175   -5.8540 H   0  0  0  0  0  0  0  0  0  0  0  0
   22.3080  -15.4922   -8.3987 H   0  0  0  0  0  0  0  0  0  0  0  0
   19.9067  -17.7318   -6.1697 H   0  0  0  0  0  0  0  0  0  0  0  0
   21.3909  -16.8265   -9.3121 H   0  0  0  0  0  0  0  0  0  0  0  0
   19.8441  -18.3324   -8.1194 H   0  0  0  0  0  0  0  0  0  0  0  0
   21.1783  -17.4415  -10.6637 H   0  0  0  0  0  0  0  0  0  0  0  0
   19.3749  -19.6863  -11.0235 H   0  0  0  0  0  0  0  0  0  0  0  0
   20.9587  -18.0505  -12.0168 H   0  0  0  0  0  0  0  0  0  0  0  0
   20.7518  -18.6702  -13.3671 H   0  0  0  0  0  0  0  0  0  0  0  0
   18.7385  -21.4032  -14.6282 H   0  0  0  0  0  0  0  0  0  0  0  0
   20.0980  -20.3446  -16.6643 H   0  0  0  0  0  0  0  0  0  0  0  0
   21.2507  -18.5717  -15.1551 H   0  0  0  0  0  0  0  0  0  0  0  0
   18.6088  -21.2458  -13.5229 H   0  0  0  0  0  0  0  0  0  0  0  0
   18.8205  -20.4512  -11.3945 H   0  0  0  0  0  0  0  0  0  0  0  0
   18.3759  -20.8188  -10.8128 H   0  0  0  0  0  0  0  0  0  0  0  0
   17.6913  -21.2756   -9.4639 H   0  0  0  0  0  0  0  0  0  0  0  0
   16.7763  -22.2351   -8.9791 H   0  0  0  0  0  0  0  0  0  0  0  0
   15.2101  -24.2968   -9.7325 H   0  0  0  0  0  0  0  0  0  0  0  0
   15.1488  -24.1120   -8.7572 H   0  0  0  0  0  0  0  0  0  0  0  0
   17.1095  -21.8822   -9.1443 H   0  0  0  0  0  0  0  0  0  0  0  0
   16.9790  -21.4989   -7.1083 H   0  0  0  0  0  0  0  0  0  0  0  0
   14.6442  -24.3912   -7.5481 H   0  0  0  0  0  0  0  0  0  0  0  0
   16.5874  -21.6074   -5.7595 H   0  0  0  0  0  0  0  0  0  0  0  0
   15.2553  -22.3002   -2.3942 H   0  0  0  0  0  0  0  0  0  0  0  0
   16.3995  -21.3382   -3.8993 H   0  0  0  0  0  0  0  0  0  0  0  0
   14.2864  -23.4451   -2.3676 H   0  0  0  0  0  0  0  0  0  0  0  0
   13.1587  -25.5021   -5.0870 H   0  0  0  0  0  0  0  0  0  0  0  0
   13.7469  -24.9639   -5.6815 H   0  0  0  0  0  0  0  0  0  0  0  0
   14.8733  -24.9469  -10.6755 H   0  0  0  0  0  0  0  0  0  0  0  0
   14.8781  -25.3436  -12.1953 H   0  0  0  0  0  0  0  0  0  0  0  0
   15.2214  -25.2368  -13.3338 H   0  0  0  0  0  0  0  0  0  0  0  0
   16.1504  -24.4565  -14.5583 H   0  0  0  0  0  0  0  0  0  0  0  0
   16.8208  -23.7787  -15.0092 H   0  0  0  0  0  0  0  0  0  0  0  0
   17.8342  -22.8006  -15.8658 H   0  0  0  0  0  0  0  0  0  0  0  0
   18.9995  -21.1838  -14.9920 H   0  0  0  0  0  0  0  0  0  0  0  0
   18.8573  -20.9243  -13.3734 H   0  0  0  0  0  0  0  0  0  0  0  0
   18.7638  -20.2779  -10.5854 H   0  0  0  0  0  0  0  0  0  0  0  0
   17.6652  -21.1959   -9.1630 H   0  0  0  0  0  0  0  0  0  0  0  0
   17.8134  -20.4708   -7.1167 H   0  0  0  0  0  0  0  0  0  0  0  0
   18.9932  -18.9260   -6.5633 H   0  0  0  0  0  0  0  0  0  0  0  0
   20.2098  -17.8111   -7.7727 H   0  0  0  0  0  0  0  0  0  0  0  0
  1  2  2  3
  2  3  1  0
  3  4  1  0
  4  5  1  0
  5  6  1  0
  6  7  1  0
  7  8  2  3
  6  9  1  0
  9 10  1  0
 10 11  1  0
 11 12  1  0
 12 13  1  0
 13 14  1  0
 14 15  1  0
 15 16  1  0
 16 17  1  0
 17 18  1  0
 18 19  1  0
 18 20  1  0
 12 21  1  0
 21 22  1  0
 22 23  1  0
 23 24  1  0
 24 25  1  0
  4 26  1  0
 26 27  1  0
 27 28  1  0
 25 10  1  0
 28 26  1  0
 20 15  1  0
 25 23  1  0
 20 16  1  0
  1 29  1  0
  1 30  1  0
  2 31  1  0
  3 32  1  0
  3 33  1  0
  4 34  1  0
  5 35  1  0
  5 36  1  0
  6 37  1  0
  7 38  1  0
  8 39  1  0
  8 40  1  0
  9 41  1  0
  9 42  1  0
 10 43  1  0
 11 44  1  0
 11 45  1  0
 12 46  1  0
 13 47  1  0
 13 48  1  0
 14 49  1  0
 15 50  1  0
 16 51  1  0
 17 52  1  0
 17 53  1  0
 18 54  1  0
 19 55  1  0
 20 56  1  0
 21 57  1  0
 21 58  1  0
 22 59  1  0
 22 60  1  0
 23 61  1  0
 24 62  1  0
 24 63  1  0
 25 64  1  0
 26 65  1  0
 27 66  1  0
 27 67  1  0
 28 68  1  0
 28 69  1  0
M  END
