
     RDKit          2D

 34 34  0  0  0  0  0  0  0  0999 V2000
   -3.0982   20.6710    4.8738 C   0  0  0  0  0  0  0  0  0  0  0  0
   -3.7205   20.8225    3.5174 C   0  0  0  0  0  0  0  0  0  0  0  0
   -4.3428   20.9740    2.1610 C   0  0  0  0  0  0  0  0  0  0  0  0
   -4.9652   21.1256    0.8047 C   0  0  0  0  0  0  0  0  0  0  0  0
   -5.5876   21.2771   -0.5517 C   0  0  0  0  0  0  0  0  0  0  0  0
   -6.2099   21.4286   -1.9080 C   0  0  0  0  0  0  0  0  0  0  0  0
   -7.6406   21.8617   -2.0326 O   0  0  0  0  0  0  0  0  0  0  0  0
   -5.4016   21.1469   -3.1398 O   0  0  0  0  0  0  0  0  0  0  0  0
   -6.0239   21.2984   -4.4962 O   0  0  0  0  0  0  0  0  0  0  0  0
   -4.2318   21.1742   -1.1852 C   0  0  0  0  0  0  0  0  0  0  0  0
   -2.8760   21.0712   -1.8188 C   0  0  0  0  0  0  0  0  0  0  0  0
   -2.2535   20.9221   -0.4622 C   0  0  0  0  0  0  0  0  0  0  0  0
   -0.8977   20.8192   -1.0958 C   0  0  0  0  0  0  0  0  0  0  0  0
   -3.6092   21.0250    0.1713 C   0  0  0  0  0  0  0  0  0  0  0  0
   -2.4759   20.5195    6.2301 H   0  0  0  0  0  0  0  0  0  0  0  0
   -4.1200   21.6075    5.4472 H   0  0  0  0  0  0  0  0  0  0  0  0
   -2.0764   19.7346    4.3003 H   0  0  0  0  0  0  0  0  0  0  0  0
   -5.0135   21.2343    4.1567 H   0  0  0  0  0  0  0  0  0  0  0  0
   -2.4275   20.4108    2.8781 H   0  0  0  0  0  0  0  0  0  0  0  0
   -2.9839   20.5460    1.6919 H   0  0  0  0  0  0  0  0  0  0  0  0
   -5.6356   21.3867    2.8003 H   0  0  0  0  0  0  0  0  0  0  0  0
   -4.2187   20.8930    0.6494 H   0  0  0  0  0  0  0  0  0  0  0  0
   -6.2578   21.5388    1.4438 H   0  0  0  0  0  0  0  0  0  0  0  0
   -6.9433   21.3800    0.0819 H   0  0  0  0  0  0  0  0  0  0  0  0
   -5.2155   21.0168   -5.7280 H   0  0  0  0  0  0  0  0  0  0  0  0
   -4.5079   21.2940   -2.6547 H   0  0  0  0  0  0  0  0  0  0  0  0
   -3.4986   21.2204   -3.1753 H   0  0  0  0  0  0  0  0  0  0  0  0
   -1.6064   20.9873   -2.6129 H   0  0  0  0  0  0  0  0  0  0  0  0
   -1.6309   20.7730    0.8942 H   0  0  0  0  0  0  0  0  0  0  0  0
    0.4580   20.7163   -1.7294 H   0  0  0  0  0  0  0  0  0  0  0  0
   -0.2594   20.8828    0.2601 H   0  0  0  0  0  0  0  0  0  0  0  0
   -1.3662   20.7436   -2.5188 H   0  0  0  0  0  0  0  0  0  0  0  0
   -2.8260   20.8644    1.4405 H   0  0  0  0  0  0  0  0  0  0  0  0
   -4.7740   21.0888    1.1142 H   0  0  0  0  0  0  0  0  0  0  0  0
  1  2  1  0
  2  3  1  0
  3  4  1  0
  4  5  1  0
  5  6  1  0
  6  7  2  0
  6  8  1  0
  8  9  1  0
  5 10  1  0
 10 11  1  0
 11 12  1  0
 12 13  1  0
 12 14  1  0
 14 10  1  0
  1 15  1  0
  1 16  1  0
  1 17  1  0
  2 18  1  0
  2 19  1  0
  3 20  1  0
  3 21  1  0
  4 22  1  0
  4 23  1  0
  5 24  1  0
  9 25  1  0
 10 26  1  0
 11 27  1  0
 11 28  1  0
 12 29  1  0
 13 30  1  0
 13 31  1  0
 13 32  1  0
 14 33  1  0
 14 34  1  0
M  END
