
     RDKit          2D

 23 26  0  0  0  0  0  0  0  0999 V2000
   -5.0999   27.1619    5.1831 N   0  0  0  0  0  2  0  0  0  0  0  0
   -4.6401   26.0759    6.1100 C   0  0  0  0  0  0  0  0  0  0  0  0
   -4.1802   24.9898    7.0369 N   0  0  0  0  0  2  0  0  0  0  0  0
   -2.9585   24.7853    6.1911 C   0  0  0  0  0  0  0  0  0  0  0  0
   -3.4183   25.8713    5.2642 C   0  0  0  0  0  0  0  0  0  0  0  0
   -2.1965   25.6667    4.4184 C   0  0  0  0  0  0  0  0  0  0  0  0
   -0.9747   25.4622    3.5725 C   0  0  0  0  0  0  0  0  0  0  0  0
   -0.7620   26.3005    2.3470 C   0  0  0  0  0  0  0  0  0  0  0  0
    0.2470   25.2576    2.7267 C   0  0  0  0  0  0  0  0  0  0  0  0
    1.2561   24.2147    3.1065 C   0  0  0  0  0  0  0  0  0  0  0  0
    0.0343   24.4193    3.9523 C   0  0  0  0  0  0  0  0  0  0  0  0
   -6.0366   28.2236    5.6782 H   0  0  0  0  0  0  0  0  0  0  0  0
   -5.8619   26.2804    6.9558 H   0  0  0  0  0  0  0  0  0  0  0  0
   -2.4986   23.6992    7.1179 H   0  0  0  0  0  0  0  0  0  0  0  0
   -2.2093   24.5872    5.7621 H   0  0  0  0  0  0  0  0  0  0  0  0
   -3.8781   26.9573    4.3373 H   0  0  0  0  0  0  0  0  0  0  0  0
   -1.7555   25.1519    4.9884 H   0  0  0  0  0  0  0  0  0  0  0  0
   -2.7989   26.5200    3.3418 H   0  0  0  0  0  0  0  0  0  0  0  0
   -1.9935   27.1553    2.3992 H   0  0  0  0  0  0  0  0  0  0  0  0
   -0.1216   26.8419    1.1033 H   0  0  0  0  0  0  0  0  0  0  0  0
    2.2469   24.3940    1.9947 H   0  0  0  0  0  0  0  0  0  0  0  0
    1.9211   23.1096    3.8723 H   0  0  0  0  0  0  0  0  0  0  0  0
   -0.1784   23.5810    5.1778 H   0  0  0  0  0  0  0  0  0  0  0  0
  1  2  1  0
  2  3  1  0
  3  4  1  0
  4  5  1  0
  5  6  1  0
  6  7  1  0
  7  8  1  0
  8  9  1  0
  9 10  1  0
 10 11  1  0
  5  2  1  0
  9  7  1  0
 11  7  1  0
 11  9  1  0
  1 12  1  0
  2 13  1  0
  4 14  1  0
  4 15  1  0
  5 16  1  0
  6 17  1  0
  6 18  1  0
  8 19  1  0
  8 20  1  0
 10 21  1  0
 10 22  1  0
 11 23  1  0
M  RAD  2   1   2   3   2
M  END
