
     RDKit          2D

 49 52  0  0  0  0  0  0  0  0999 V2000
    2.3873   28.4313    1.7302 O   0  0  0  0  0  0  0  0  0  0  0  0
    2.5197   27.1427    2.4864 C   0  0  0  0  0  0  0  0  0  0  0  0
    3.0622   25.9235    1.8015 O   0  0  0  0  0  0  0  0  0  0  0  0
    2.1095   27.0732    3.9276 C   0  0  0  0  0  0  0  0  0  0  0  0
    2.4488   27.2059    5.3827 C   0  0  0  0  0  0  0  0  0  0  0  0
    1.6930   27.0390    6.6675 C   0  0  0  0  0  0  0  0  0  0  0  0
    0.2848   26.6703    7.0295 C   0  0  0  0  0  0  0  0  0  0  0  0
   -0.9509   26.3158    6.2567 C   0  0  0  0  0  0  0  0  0  0  0  0
   -1.2903   26.1831    4.8016 C   0  0  0  0  0  0  0  0  0  0  0  0
   -1.7170   26.1091    6.2377 C   0  0  0  0  0  0  0  0  0  0  0  0
   -1.3276   26.2549    7.6789 C   0  0  0  0  0  0  0  0  0  0  0  0
   -0.2457   26.5741    8.6677 C   0  0  0  0  0  0  0  0  0  0  0  0
    0.6186   26.8407    9.8643 C   0  0  0  0  0  0  0  0  0  0  0  0
    2.0662   27.2314    9.9040 C   0  0  0  0  0  0  0  0  0  0  0  0
    3.0071   27.4520    8.7569 C   0  0  0  0  0  0  0  0  0  0  0  0
    3.3101   27.4842    7.0189 C   0  0  0  0  0  0  0  0  0  0  0  0
    2.5107   27.3048    8.2755 C   0  0  0  0  0  0  0  0  0  0  0  0
    1.1852   26.9655    8.8901 C   0  0  0  0  0  0  0  0  0  0  0  0
   -0.5345   26.3500    3.5167 C   0  0  0  0  0  0  0  0  0  0  0  0
   -0.1242   26.4195    2.0756 C   0  0  0  0  0  0  0  0  0  0  0  0
   -1.4211   26.0517    1.4176 O   0  0  0  0  0  0  0  0  0  0  0  0
    0.8737   26.7187    3.1547 N   0  0  0  0  0  0  0  0  0  0  0  0
    2.1304   24.9800    1.1005 H   0  0  0  0  0  0  0  0  0  0  0  0
    3.5574   27.4637    3.9545 H   0  0  0  0  0  0  0  0  0  0  0  0
    3.8796   27.5973    5.6050 H   0  0  0  0  0  0  0  0  0  0  0  0
    2.5122   27.2735    7.1599 H   0  0  0  0  0  0  0  0  0  0  0  0
    1.8064   27.1039    7.8755 H   0  0  0  0  0  0  0  0  0  0  0  0
    0.4234   26.7384    8.1121 H   0  0  0  0  0  0  0  0  0  0  0  0
   -0.0460   26.6018    7.7516 H   0  0  0  0  0  0  0  0  0  0  0  0
   -1.1887   26.2939    7.7375 H   0  0  0  0  0  0  0  0  0  0  0  0
   -2.3648   25.9449    6.5933 H   0  0  0  0  0  0  0  0  0  0  0  0
   -2.6830   25.7969    4.4001 H   0  0  0  0  0  0  0  0  0  0  0  0
   -2.9812   25.7484    5.5154 H   0  0  0  0  0  0  0  0  0  0  0  0
   -2.9997   25.7840    6.9441 H   0  0  0  0  0  0  0  0  0  0  0  0
   -2.7734   25.8687    7.7816 H   0  0  0  0  0  0  0  0  0  0  0  0
   -1.8840   26.1446    9.0676 H   0  0  0  0  0  0  0  0  0  0  0  0
   -0.8651   26.4461   10.0278 H   0  0  0  0  0  0  0  0  0  0  0  0
   -0.0537   26.6977   11.1976 H   0  0  0  0  0  0  0  0  0  0  0  0
    2.6503   27.4275   11.2717 H   0  0  0  0  0  0  0  0  0  0  0  0
    3.8715   27.7187    9.9534 H   0  0  0  0  0  0  0  0  0  0  0  0
    4.4346   27.8287    8.4913 H   0  0  0  0  0  0  0  0  0  0  0  0
    4.7360   27.8751    7.2718 H   0  0  0  0  0  0  0  0  0  0  0  0
    2.4522   27.3316    9.7740 H   0  0  0  0  0  0  0  0  0  0  0  0
    3.9472   27.6965    8.4577 H   0  0  0  0  0  0  0  0  0  0  0  0
    0.8337   26.9123   10.3473 H   0  0  0  0  0  0  0  0  0  0  0  0
    2.2926   27.2908    9.8480 H   0  0  0  0  0  0  0  0  0  0  0  0
   -1.8582   25.9768    2.9181 H   0  0  0  0  0  0  0  0  0  0  0  0
    0.7364   26.6166    0.8629 H   0  0  0  0  0  0  0  0  0  0  0  0
   -1.5108   25.9852   -0.0782 H   0  0  0  0  0  0  0  0  0  0  0  0
  1  2  2  0
  2  3  1  0
  2  4  1  0
  4  5  1  0
  5  6  1  0
  6  7  1  0
  7  8  1  0
  8  9  1  0
  9 10  1  0
 10 11  1  0
 11 12  1  0
 12 13  1  0
 13 14  2  0
 14 15  1  0
 15 16  1  0
 16 17  1  0
 17 18  1  0
  9 19  1  0
 19 20  1  0
 20 21  1  0
 20 22  1  0
 22  4  1  0
 16  5  1  0
 22 19  1  0
 18 12  1  0
  3 23  1  0
  4 24  1  0
  5 25  1  0
  6 26  1  0
  6 27  1  0
  7 28  1  0
  7 29  1  0
  8 30  1  0
  8 31  1  0
  9 32  1  0
 10 33  1  0
 10 34  1  0
 11 35  1  0
 11 36  1  0
 12 37  1  0
 13 38  1  0
 14 39  1  0
 15 40  1  0
 15 41  1  0
 16 42  1  0
 17 43  1  0
 17 44  1  0
 18 45  1  0
 18 46  1  0
 19 47  1  0
 20 48  1  0
 21 49  1  0
M  END
