
     RDKit          2D

 25 27  0  0  0  0  0  0  0  0999 V2000
    9.8836   27.3569    7.7193 C   0  0  0  0  0  0  0  0  0  0  0  0
    9.5463   28.6387    8.4215 C   0  0  0  0  0  0  0  0  0  0  0  0
    9.2089   29.9206    9.1237 C   0  0  0  0  0  0  0  0  0  0  0  0
    8.8716   31.2024    9.8259 N   0  0  0  0  0  0  0  0  0  0  0  0
    8.4562   32.6428    9.7721 C   0  0  0  0  0  0  0  0  0  0  0  0
    8.2872   33.4226   11.0422 O   0  0  0  0  0  0  0  0  0  0  0  0
    8.7025   31.9823   11.0961 C   0  0  0  0  0  0  0  0  0  0  0  0
    8.9489   31.3218   12.4201 O   0  0  0  0  0  0  0  0  0  0  0  0
    8.4539   31.9638   13.6822 C   0  0  0  0  0  0  0  0  0  0  0  0
    8.1837   32.1795   15.1418 C   0  0  0  0  0  0  0  0  0  0  0  0
    8.9294   30.9592   14.6894 C   0  0  0  0  0  0  0  0  0  0  0  0
    9.1758   30.2987   16.0134 O   0  0  0  0  0  0  0  0  0  0  0  0
   10.2210   26.0751    7.0171 H   0  0  0  0  0  0  0  0  0  0  0  0
   10.7129   26.9313    8.8946 H   0  0  0  0  0  0  0  0  0  0  0  0
    9.0544   27.7824    6.5441 H   0  0  0  0  0  0  0  0  0  0  0  0
    9.7694   29.3961    7.1461 H   0  0  0  0  0  0  0  0  0  0  0  0
    9.3232   27.8813    9.6969 H   0  0  0  0  0  0  0  0  0  0  0  0
   10.1414   29.5544   10.2401 H   0  0  0  0  0  0  0  0  0  0  0  0
    8.2764   30.2867    8.0073 H   0  0  0  0  0  0  0  0  0  0  0  0
    8.2099   33.3033    8.4480 H   0  0  0  0  0  0  0  0  0  0  0  0
    7.8063   33.1914   13.1132 H   0  0  0  0  0  0  0  0  0  0  0  0
    7.4424   33.4820   15.0798 H   0  0  0  0  0  0  0  0  0  0  0  0
    8.1711   31.9428   16.6229 H   0  0  0  0  0  0  0  0  0  0  0  0
    9.5896   29.9682   13.7772 H   0  0  0  0  0  0  0  0  0  0  0  0
    9.9171   28.9962   16.0754 H   0  0  0  0  0  0  0  0  0  0  0  0
  1  2  1  0
  2  3  1  0
  3  4  1  0
  4  5  1  0
  5  6  1  0
  6  7  1  0
  7  8  1  0
  8  9  1  0
  9 10  1  0
 10 11  1  0
 11 12  1  0
  7  4  1  0
 11  9  1  0
  7  5  1  0
  1 13  1  0
  1 14  1  0
  1 15  1  0
  2 16  1  0
  2 17  1  0
  3 18  1  0
  3 19  1  0
  5 20  1  0
  9 21  1  0
 10 22  1  0
 10 23  1  0
 11 24  1  0
 12 25  1  0
M  END
