
     RDKit          2D

 47 50  0  0  0  0  0  0  0  0999 V2000
   -2.7102   25.8678    5.4728 C   0  0  0  0  0  0  0  0  0  0  0  0
   -2.1168   24.6724    4.7880 C   0  0  0  0  0  0  0  0  0  0  0  0
   -2.8339   23.3553    4.8232 C   0  0  0  0  0  0  0  0  0  0  0  0
   -0.8065   24.7939    4.0681 C   0  0  0  0  0  0  0  0  0  0  0  0
    0.5039   24.9156    3.3483 C   0  0  0  0  0  0  0  0  0  0  0  0
    1.8142   25.0372    2.6284 C   0  0  0  0  0  0  0  0  0  0  0  0
    3.0211   24.6553    1.8237 C   0  0  0  0  0  0  0  0  0  0  0  0
    1.9714   23.6297    2.1341 C   0  0  0  0  0  0  0  0  0  0  0  0
   -0.7351   26.2446    4.4431 C   0  0  0  0  0  0  0  0  0  0  0  0
   -1.1163   27.5662    5.0414 C   0  0  0  0  0  0  0  0  0  0  0  0
   -2.0135   26.3769    5.2166 C   0  0  0  0  0  0  0  0  0  0  0  0
   -3.1129   26.9970    6.0269 C   0  0  0  0  0  0  0  0  0  0  0  0
   -4.2123   27.6172    6.8373 C   0  0  0  0  0  0  0  0  0  0  0  0
   -5.1095   26.4279    7.0124 C   0  0  0  0  0  0  0  0  0  0  0  0
   -6.3878   26.5602    7.7859 C   0  0  0  0  0  0  0  0  0  0  0  0
   -6.9032   25.1555    7.6796 C   0  0  0  0  0  0  0  0  0  0  0  0
   -7.4186   23.7508    7.5733 C   0  0  0  0  0  0  0  0  0  0  0  0
   -5.4907   27.7495    7.6108 C   0  0  0  0  0  0  0  0  0  0  0  0
   -5.8719   29.0711    8.2091 O   0  0  0  0  0  0  0  0  0  0  0  0
   -4.0195   25.5703    6.1416 H   0  0  0  0  0  0  0  0  0  0  0  0
   -1.9931   27.1849    5.4376 H   0  0  0  0  0  0  0  0  0  0  0  0
   -3.5509   22.0382    4.8583 H   0  0  0  0  0  0  0  0  0  0  0  0
   -3.7554   23.8852    5.8814 H   0  0  0  0  0  0  0  0  0  0  0  0
   -1.9123   22.8253    3.7649 H   0  0  0  0  0  0  0  0  0  0  0  0
   -0.8778   23.3433    3.6932 H   0  0  0  0  0  0  0  0  0  0  0  0
    0.2968   23.6062    3.0932 H   0  0  0  0  0  0  0  0  0  0  0  0
    0.6715   25.9762    3.5549 H   0  0  0  0  0  0  0  0  0  0  0  0
    2.1121   26.4868    2.8727 H   0  0  0  0  0  0  0  0  0  0  0  0
    3.7381   25.9724    1.7886 H   0  0  0  0  0  0  0  0  0  0  0  0
    3.9790   23.8160    1.0311 H   0  0  0  0  0  0  0  0  0  0  0  0
    2.5647   22.4342    1.4493 H   0  0  0  0  0  0  0  0  0  0  0  0
    0.8915   22.9395    2.5581 H   0  0  0  0  0  0  0  0  0  0  0  0
    0.1938   26.6385    4.0216 H   0  0  0  0  0  0  0  0  0  0  0  0
    0.0544   28.3966    4.6060 H   0  0  0  0  0  0  0  0  0  0  0  0
   -1.7703   28.7166    5.7476 H   0  0  0  0  0  0  0  0  0  0  0  0
   -2.4345   25.7017    5.2651 H   0  0  0  0  0  0  0  0  0  0  0  0
   -3.9592   25.7657    6.1595 H   0  0  0  0  0  0  0  0  0  0  0  0
   -2.5347   28.3796    6.0919 H   0  0  0  0  0  0  0  0  0  0  0  0
   -3.6970   29.0219    6.9437 H   0  0  0  0  0  0  0  0  0  0  0  0
   -4.7283   25.1062    6.4141 H   0  0  0  0  0  0  0  0  0  0  0  0
   -7.4873   27.1803    8.5963 H   0  0  0  0  0  0  0  0  0  0  0  0
   -8.1101   25.5373    8.4842 H   0  0  0  0  0  0  0  0  0  0  0  0
   -5.6963   24.7737    6.8749 H   0  0  0  0  0  0  0  0  0  0  0  0
   -7.9339   22.3461    7.4669 H   0  0  0  0  0  0  0  0  0  0  0  0
   -8.6256   24.1327    8.3777 H   0  0  0  0  0  0  0  0  0  0  0  0
   -6.2115   23.3689    6.7687 H   0  0  0  0  0  0  0  0  0  0  0  0
   -4.8665   30.1823    8.2755 H   0  0  0  0  0  0  0  0  0  0  0  0
  1  2  2  3
  2  3  1  0
  2  4  1  0
  4  5  1  0
  5  6  1  0
  6  7  1  0
  7  8  1  0
  4  9  1  0
  9 10  1  0
 10 11  1  0
 11 12  1  0
 12 13  1  0
 13 14  1  0
 14 15  1  0
 15 16  1  0
 16 17  1  0
 15 18  1  0
 18 19  1  0
  8  6  1  0
 11  9  1  0
 18 13  1  0
 18 14  1  0
  1 20  1  0
  1 21  1  0
  3 22  1  0
  3 23  1  0
  3 24  1  0
  4 25  1  0
  5 26  1  0
  5 27  1  0
  6 28  1  0
  7 29  1  0
  7 30  1  0
  8 31  1  0
  8 32  1  0
  9 33  1  0
 10 34  1  0
 10 35  1  0
 11 36  1  0
 12 37  1  0
 12 38  1  0
 13 39  1  0
 14 40  1  0
 15 41  1  0
 16 42  1  0
 16 43  1  0
 17 44  1  0
 17 45  1  0
 17 46  1  0
 19 47  1  0
M  END
