
     RDKit          2D

 44 47  0  0  0  0  0  0  0  0999 V2000
   14.5591  -22.2466   -6.9577 C   0  0  0  0  0  0  0  0  0  0  0  0
   15.4933  -21.6068   -7.9415 C   0  0  0  0  0  0  0  0  0  0  0  0
   14.9739  -22.8552   -8.5908 C   0  0  0  0  0  0  0  0  0  0  0  0
   15.1027  -23.6225   -9.8732 C   0  0  0  0  0  0  0  0  0  0  0  0
   14.2593  -24.8629   -9.8730 C   0  0  0  0  0  0  0  0  0  0  0  0
   14.4550  -25.5566  -11.1885 C   0  0  0  0  0  0  0  0  0  0  0  0
   15.4193  -24.7451  -12.0016 C   0  0  0  0  0  0  0  0  0  0  0  0
   15.8197  -23.5496  -11.1887 C   0  0  0  0  0  0  0  0  0  0  0  0
   16.7893  -22.6707  -11.9218 C   0  0  0  0  0  0  0  0  0  0  0  0
   17.5578  -21.3970  -11.7295 C   0  0  0  0  0  0  0  0  0  0  0  0
   17.7656  -20.3244  -10.7016 C   0  0  0  0  0  0  0  0  0  0  0  0
   18.2850  -19.0760  -10.0524 C   0  0  0  0  0  0  0  0  0  0  0  0
   17.3155  -19.9549   -9.3193 C   0  0  0  0  0  0  0  0  0  0  0  0
   17.5233  -18.8823   -8.2914 C   0  0  0  0  0  0  0  0  0  0  0  0
   16.4181  -20.4613   -8.2292 C   0  0  0  0  0  0  0  0  0  0  0  0
   17.6867  -22.1643  -13.0119 As  0  0  0  0  0  3  0  0  0  0  0  0
   18.2792  -22.3149  -14.3816 C   0  0  0  0  0  0  0  0  0  0  0  0
   13.6250  -22.8864   -5.9738 H   0  0  0  0  0  0  0  0  0  0  0  0
   14.7950  -21.2457   -6.0828 H   0  0  0  0  0  0  0  0  0  0  0  0
   14.3039  -22.9023   -7.3323 H   0  0  0  0  0  0  0  0  0  0  0  0
   15.3723  -20.9216   -6.7846 H   0  0  0  0  0  0  0  0  0  0  0  0
   14.0894  -24.0599   -8.4620 H   0  0  0  0  0  0  0  0  0  0  0  0
   14.5186  -23.0612   -7.9696 H   0  0  0  0  0  0  0  0  0  0  0  0
   15.0289  -24.5868  -11.0199 H   0  0  0  0  0  0  0  0  0  0  0  0
   13.7648  -24.5582   -8.4901 H   0  0  0  0  0  0  0  0  0  0  0  0
   13.3345  -26.0084   -9.5854 H   0  0  0  0  0  0  0  0  0  0  0  0
   13.4893  -26.5570  -10.6258 H   0  0  0  0  0  0  0  0  0  0  0  0
   14.4488  -26.4595  -12.3864 H   0  0  0  0  0  0  0  0  0  0  0  0
   15.2116  -25.8176  -13.0295 H   0  0  0  0  0  0  0  0  0  0  0  0
   16.2962  -24.3010  -13.1348 H   0  0  0  0  0  0  0  0  0  0  0  0
   16.4256  -23.6780  -12.5549 H   0  0  0  0  0  0  0  0  0  0  0  0
   17.4917  -21.3882  -11.5874 H   0  0  0  0  0  0  0  0  0  0  0  0
   18.5273  -20.5181  -12.4626 H   0  0  0  0  0  0  0  0  0  0  0  0
   18.6630  -19.8180  -11.7917 H   0  0  0  0  0  0  0  0  0  0  0  0
   19.1824  -18.5696  -11.1425 H   0  0  0  0  0  0  0  0  0  0  0  0
   18.6069  -17.9257   -9.1450 H   0  0  0  0  0  0  0  0  0  0  0  0
   17.7312  -17.8098   -7.2637 H   0  0  0  0  0  0  0  0  0  0  0  0
   16.6048  -19.4477   -7.2490 H   0  0  0  0  0  0  0  0  0  0  0  0
   18.4925  -18.0556   -9.0834 H   0  0  0  0  0  0  0  0  0  0  0  0
   15.9731  -20.0847   -6.8472 H   0  0  0  0  0  0  0  0  0  0  0  0
   16.9328  -19.2147   -7.5729 H   0  0  0  0  0  0  0  0  0  0  0  0
   18.8717  -22.4655  -15.7514 H   0  0  0  0  0  0  0  0  0  0  0  0
   19.0476  -21.0411  -14.1893 H   0  0  0  0  0  0  0  0  0  0  0  0
   17.5107  -23.5887  -14.5740 H   0  0  0  0  0  0  0  0  0  0  0  0
  1  2  1  0
  2  3  1  0
  3  4  1  0
  4  5  1  0
  5  6  1  0
  6  7  1  0
  7  8  1  0
  8  9  1  0
  9 10  1  0
 10 11  1  0
 11 12  1  0
 12 13  1  0
 13 14  1  0
 13 15  1  0
 10 16  1  0
 16 17  1  0
 15  2  1  0
  8  4  1  0
 16  9  1  0
 13 11  1  0
  1 18  1  0
  1 19  1  0
  1 20  1  0
  2 21  1  0
  3 22  1  0
  3 23  1  0
  4 24  1  0
  5 25  1  0
  5 26  1  0
  6 27  1  0
  6 28  1  0
  7 29  1  0
  7 30  1  0
  8 31  1  0
  9 32  1  0
 10 33  1  0
 11 34  1  0
 12 35  1  0
 12 36  1  0
 14 37  1  0
 14 38  1  0
 14 39  1  0
 15 40  1  0
 15 41  1  0
 17 42  1  0
 17 43  1  0
 17 44  1  0
M  END
