
     RDKit          2D

 66 71  0  0  0  0  0  0  0  0999 V2000
    6.4782   25.4936   10.1865 C   0  0  0  0  0  0  0  0  0  0  0  0
    5.1206   26.0869    9.9525 C   0  0  0  0  0  0  0  0  0  0  0  0
    4.2990   25.6406    8.7795 C   0  0  0  0  0  0  0  0  0  0  0  0
    3.4775   25.1942    7.6066 C   0  0  0  0  0  0  0  0  0  0  0  0
    2.4760   26.1785    8.1339 C   0  0  0  0  0  0  0  0  0  0  0  0
    1.2808   26.1543    7.2279 N   0  0  0  0  0  0  0  0  0  0  0  0
    1.5436   25.1549    6.1406 C   0  0  0  0  0  0  0  0  0  0  0  0
    0.2372   25.8920    6.1281 N   0  0  0  0  0  0  0  0  0  0  0  0
   -1.0964   26.1611    5.4965 C   0  0  0  0  0  0  0  0  0  0  0  0
   -0.6919   26.8994    6.7380 C   0  0  0  0  0  0  0  0  0  0  0  0
   -1.9081   27.7534    6.9412 C   0  0  0  0  0  0  0  0  0  0  0  0
   -3.1244   28.6075    7.1445 C   0  0  0  0  0  0  0  0  0  0  0  0
   -4.1840   29.5674    7.5979 C   0  0  0  0  0  0  0  0  0  0  0  0
   -5.3338   29.4756    6.6388 C   0  0  0  0  0  0  0  0  0  0  0  0
   -6.3043   29.1697    5.5368 C   0  0  0  0  0  0  0  0  0  0  0  0
   -4.9846   28.4589    5.5927 N   0  0  0  0  0  0  0  0  0  0  0  0
   -3.6192   27.9224    5.9052 C   0  0  0  0  0  0  0  0  0  0  0  0
   -3.8381   27.0886    4.6775 C   0  0  0  0  0  0  0  0  0  0  0  0
   -4.0569   26.2550    3.4500 C   0  0  0  0  0  0  0  0  0  0  0  0
   -3.6328   26.7716    2.1071 C   0  0  0  0  0  0  0  0  0  0  0  0
    0.5683   24.8541    5.0415 C   0  0  0  0  0  0  0  0  0  0  0  0
    0.3701   26.1943    6.6125 C   0  0  0  0  0  0  0  0  0  0  0  0
    1.1100   26.7081    7.8120 C   0  0  0  0  0  0  0  0  0  0  0  0
    0.4839   27.7512    8.6893 C   0  0  0  0  0  0  0  0  0  0  0  0
    0.7096   23.8856    3.9048 O   0  0  0  0  0  0  0  0  0  0  0  0
    1.8613   22.9787    3.5866 C   0  0  0  0  0  0  0  0  0  0  0  0
    3.1560   22.8163    4.3264 C   0  0  0  0  0  0  0  0  0  0  0  0
    3.6188   23.5208    5.5673 C   0  0  0  0  0  0  0  0  0  0  0  0
    2.9012   24.5616    6.3747 C   0  0  0  0  0  0  0  0  0  0  0  0
    7.2998   25.9399   11.3595 H   0  0  0  0  0  0  0  0  0  0  0  0
    7.0143   24.4538    9.2476 H   0  0  0  0  0  0  0  0  0  0  0  0
    4.5845   27.1266   10.8914 H   0  0  0  0  0  0  0  0  0  0  0  0
    3.1615   26.1394    9.6203 H   0  0  0  0  0  0  0  0  0  0  0  0
    5.5461   25.1927    8.0765 H   0  0  0  0  0  0  0  0  0  0  0  0
    4.7276   24.3759    7.4739 H   0  0  0  0  0  0  0  0  0  0  0  0
    2.4742   27.1025    9.3157 H   0  0  0  0  0  0  0  0  0  0  0  0
    0.2169   27.1122    7.6757 H   0  0  0  0  0  0  0  0  0  0  0  0
   -1.1968   25.2760    4.2896 H   0  0  0  0  0  0  0  0  0  0  0  0
   -2.4640   26.6501    5.1215 H   0  0  0  0  0  0  0  0  0  0  0  0
   -0.0038   27.4530    7.9505 H   0  0  0  0  0  0  0  0  0  0  0  0
   -1.2615   28.7879    7.8140 H   0  0  0  0  0  0  0  0  0  0  0  0
   -2.7091   26.8161    6.0868 H   0  0  0  0  0  0  0  0  0  0  0  0
   -2.3753   29.1141    8.3413 H   0  0  0  0  0  0  0  0  0  0  0  0
   -3.2135   29.8733    8.6999 H   0  0  0  0  0  0  0  0  0  0  0  0
   -5.0408   30.5913    8.2817 H   0  0  0  0  0  0  0  0  0  0  0  0
   -6.1906   30.4995    7.3226 H   0  0  0  0  0  0  0  0  0  0  0  0
   -7.4217   30.0988    5.9085 H   0  0  0  0  0  0  0  0  0  0  0  0
   -6.8868   28.5411    4.3058 H   0  0  0  0  0  0  0  0  0  0  0  0
   -2.2995   27.2115    5.9610 H   0  0  0  0  0  0  0  0  0  0  0  0
   -2.5243   26.3655    4.7109 H   0  0  0  0  0  0  0  0  0  0  0  0
   -5.1886   27.7148    4.4931 H   0  0  0  0  0  0  0  0  0  0  0  0
   -4.6999   24.9047    3.5652 H   0  0  0  0  0  0  0  0  0  0  0  0
   -3.8516   25.9378    0.8795 H   0  0  0  0  0  0  0  0  0  0  0  0
   -2.9898   28.1218    1.9919 H   0  0  0  0  0  0  0  0  0  0  0  0
   -0.7853   25.2027    4.4969 H   0  0  0  0  0  0  0  0  0  0  0  0
   -0.5134   27.2128    7.2699 H   0  0  0  0  0  0  0  0  0  0  0  0
   -0.9429   26.4024    5.9178 H   0  0  0  0  0  0  0  0  0  0  0  0
    1.2239   28.2649    9.8888 H   0  0  0  0  0  0  0  0  0  0  0  0
   -0.8639   28.3862    8.5159 H   0  0  0  0  0  0  0  0  0  0  0  0
    0.8859   22.6779    2.4874 H   0  0  0  0  0  0  0  0  0  0  0  0
    2.4316   21.9371    2.6703 H   0  0  0  0  0  0  0  0  0  0  0  0
    3.4622   21.8078    3.2592 H   0  0  0  0  0  0  0  0  0  0  0  0
    4.4834   22.1228    4.4102 H   0  0  0  0  0  0  0  0  0  0  0  0
    4.8518   22.6835    5.3977 H   0  0  0  0  0  0  0  0  0  0  0  0
    4.7037   23.6976    6.5879 H   0  0  0  0  0  0  0  0  0  0  0  0
    2.0822   25.5918    7.0942 H   0  0  0  0  0  0  0  0  0  0  0  0
  1  2  2  3
  2  3  1  0
  3  4  1  0
  4  5  1  0
  5  6  1  0
  6  7  1  0
  7  8  1  0
  8  9  1  0
  9 10  1  0
 10 11  1  0
 11 12  1  0
 12 13  1  0
 13 14  1  0
 14 15  1  0
 15 16  1  0
 16 17  1  0
 17 18  1  0
 18 19  1  0
 19 20  2  3
  7 21  1  0
 21 22  1  0
 22 23  1  0
 23 24  2  3
 21 25  1  0
 25 26  1  0
 26 27  1  0
 27 28  1  0
 28 29  1  0
 29  4  1  0
 23  5  1  0
 29  7  1  0
 10  8  1  0
 17 12  1  0
 16 14  1  0
  1 30  1  0
  1 31  1  0
  2 32  1  0
  3 33  1  0
  3 34  1  0
  4 35  1  0
  5 36  1  0
  6 37  1  0
  9 38  1  0
  9 39  1  0
 10 40  1  0
 11 41  1  0
 11 42  1  0
 12 43  1  0
 13 44  1  0
 13 45  1  0
 14 46  1  0
 15 47  1  0
 15 48  1  0
 17 49  1  0
 18 50  1  0
 18 51  1  0
 19 52  1  0
 20 53  1  0
 20 54  1  0
 21 55  1  0
 22 56  1  0
 22 57  1  0
 24 58  1  0
 24 59  1  0
 26 60  1  0
 26 61  1  0
 27 62  1  0
 27 63  1  0
 28 64  1  0
 28 65  1  0
 29 66  1  0
M  END
