
     RDKit          2D

 74 80  0  0  0  0  0  0  0  0999 V2000
   -1.6923   24.6370    9.1264 C   0  0  0  0  0  0  0  0  0  0  0  0
   -2.9262   23.9669    8.5987 Sb  0  0  0  0  0  3  0  0  0  0  0  0
   -2.8974   23.2883    7.2613 C   0  0  0  0  0  0  0  0  0  0  0  0
   -3.3116   24.5704    6.6019 C   0  0  0  0  0  0  0  0  0  0  0  0
   -3.0795   23.3417    5.7733 C   0  0  0  0  0  0  0  0  0  0  0  0
   -2.8474   22.1129    4.9448 C   0  0  0  0  0  0  0  0  0  0  0  0
   -2.4332   20.8309    5.6043 C   0  0  0  0  0  0  0  0  0  0  0  0
   -2.2510   20.7776    7.0922 C   0  0  0  0  0  0  0  0  0  0  0  0
   -2.4831   22.0063    7.9207 C   0  0  0  0  0  0  0  0  0  0  0  0
   -2.5835   22.8973    9.1233 C   0  0  0  0  0  0  0  0  0  0  0  0
   -2.1803   21.7526   10.0050 C   0  0  0  0  0  0  0  0  0  0  0  0
   -2.2806   22.6435   11.2075 C   0  0  0  0  0  0  0  0  0  0  0  0
   -2.6838   23.7881   10.3259 C   0  0  0  0  0  0  0  0  0  0  0  0
   -3.0869   24.9327    9.4443 C   0  0  0  0  0  0  0  0  0  0  0  0
   -3.2616   23.3950    4.2854 C   0  0  0  0  0  0  0  0  0  0  0  0
   -3.6608   24.8318    4.1232 C   0  0  0  0  0  0  0  0  0  0  0  0
   -3.5544   23.9238    2.9339 C   0  0  0  0  0  0  0  0  0  0  0  0
   -3.8019   24.2422    1.4892 C   0  0  0  0  0  0  0  0  0  0  0  0
   -4.2169   25.5471    0.8768 C   0  0  0  0  0  0  0  0  0  0  0  0
   -4.4869   26.8560    1.5580 C   0  0  0  0  0  0  0  0  0  0  0  0
   -4.7344   27.1743    0.1132 C   0  0  0  0  0  0  0  0  0  0  0  0
   -5.0810   27.9575   -1.1183 O   0  0  0  0  0  0  0  0  0  0  0  0
   -5.1057   28.6232    0.2256 C   0  0  0  0  0  0  0  0  0  0  0  0
   -5.5182   30.0080   -0.1772 O   0  0  0  0  0  0  0  0  0  0  0  0
   -4.3322   26.9432    3.1324 C   0  0  0  0  0  0  0  0  0  0  0  0
   -3.9880   25.5151    2.8286 C   0  0  0  0  0  0  0  0  0  0  0  0
   -4.2176   27.1424    4.6147 C   0  0  0  0  0  0  0  0  0  0  0  0
   -4.1886   27.6360    6.0309 N   0  0  0  0  0  0  0  0  0  0  0  0
   -4.5327   29.0639    6.3346 C   0  0  0  0  0  0  0  0  0  0  0  0
   -4.8769   30.4920    6.6383 C   0  0  0  0  0  0  0  0  0  0  0  0
   -4.7656   29.3184    4.8748 O   0  0  0  0  0  0  0  0  0  0  0  0
   -3.8027   25.8375    5.2270 C   0  0  0  0  0  0  0  0  0  0  0  0
   -0.3767   25.2537    9.4991 H   0  0  0  0  0  0  0  0  0  0  0  0
   -2.2820   25.1124   10.4212 H   0  0  0  0  0  0  0  0  0  0  0  0
   -0.8019   24.3250    7.9604 H   0  0  0  0  0  0  0  0  0  0  0  0
   -3.3450   24.1652    9.2474 H   0  0  0  0  0  0  0  0  0  0  0  0
   -3.4603   25.5942    7.6880 H   0  0  0  0  0  0  0  0  0  0  0  0
   -3.7206   25.7745    5.8063 H   0  0  0  0  0  0  0  0  0  0  0  0
   -2.8186   21.4344    3.6074 H   0  0  0  0  0  0  0  0  0  0  0  0
   -2.0340   19.3941    5.7665 H   0  0  0  0  0  0  0  0  0  0  0  0
   -2.4767   20.3853    4.1727 H   0  0  0  0  0  0  0  0  0  0  0  0
   -1.9193   20.0720    8.3736 H   0  0  0  0  0  0  0  0  0  0  0  0
   -1.9152   19.3593    6.7377 H   0  0  0  0  0  0  0  0  0  0  0  0
   -2.0860   20.9098    8.8641 H   0  0  0  0  0  0  0  0  0  0  0  0
   -2.1680   21.5711    9.6878 H   0  0  0  0  0  0  0  0  0  0  0  0
   -1.7771   20.6079   10.8865 H   0  0  0  0  0  0  0  0  0  0  0  0
   -1.9854   20.6112    9.0514 H   0  0  0  0  0  0  0  0  0  0  0  0
   -2.3810   23.5344   12.4101 H   0  0  0  0  0  0  0  0  0  0  0  0
   -1.8775   21.4988   12.0891 H   0  0  0  0  0  0  0  0  0  0  0  0
   -2.7841   24.6790   11.5284 H   0  0  0  0  0  0  0  0  0  0  0  0
   -3.4266   26.3368    9.0398 H   0  0  0  0  0  0  0  0  0  0  0  0
   -2.9362   25.7218   10.7110 H   0  0  0  0  0  0  0  0  0  0  0  0
   -3.2838   24.3020    8.0977 H   0  0  0  0  0  0  0  0  0  0  0  0
   -3.2545   22.7843    2.9153 H   0  0  0  0  0  0  0  0  0  0  0  0
   -3.1510   22.7747    3.8095 H   0  0  0  0  0  0  0  0  0  0  0  0
   -3.3249   22.7010    2.0961 H   0  0  0  0  0  0  0  0  0  0  0  0
   -3.6089   23.1053    0.5298 H   0  0  0  0  0  0  0  0  0  0  0  0
   -4.3364   25.3659   -0.6074 H   0  0  0  0  0  0  0  0  0  0  0  0
   -4.8670   28.3065    1.5962 H   0  0  0  0  0  0  0  0  0  0  0  0
   -4.4879   25.9141   -0.6621 H   0  0  0  0  0  0  0  0  0  0  0  0
   -5.0366   28.9822    1.6805 H   0  0  0  0  0  0  0  0  0  0  0  0
   -5.6832   31.0744    0.8647 H   0  0  0  0  0  0  0  0  0  0  0  0
   -4.7369   28.1033    2.2718 H   0  0  0  0  0  0  0  0  0  0  0  0
   -4.1702   25.5684    1.3407 H   0  0  0  0  0  0  0  0  0  0  0  0
   -3.8738   24.5850    1.6574 H   0  0  0  0  0  0  0  0  0  0  0  0
   -4.6265   28.5505    4.2984 H   0  0  0  0  0  0  0  0  0  0  0  0
   -3.8403   26.8437    7.2560 H   0  0  0  0  0  0  0  0  0  0  0  0
   -4.2999   28.8096    7.7944 H   0  0  0  0  0  0  0  0  0  0  0  0
   -5.2210   31.9201    6.9421 H   0  0  0  0  0  0  0  0  0  0  0  0
   -5.1424   30.9206    5.2256 H   0  0  0  0  0  0  0  0  0  0  0  0
   -4.6516   30.2356    8.0990 H   0  0  0  0  0  0  0  0  0  0  0  0
   -5.1779   30.6127    4.2385 H   0  0  0  0  0  0  0  0  0  0  0  0
   -3.4360   24.9423    6.3735 H   0  0  0  0  0  0  0  0  0  0  0  0
   -3.8098   26.4480    6.5972 H   0  0  0  0  0  0  0  0  0  0  0  0
  1  2  1  0
  2  3  1  0
  3  4  1  0
  4  5  1  0
  5  6  1  0
  6  7  1  0
  7  8  1  0
  8  9  1  0
  9 10  1  0
 10 11  1  0
 11 12  1  0
 12 13  1  0
 13 14  1  0
  6 15  1  0
 15 16  1  0
 16 17  1  0
 17 18  1  0
 18 19  2  0
 19 20  1  0
 20 21  1  0
 21 22  1  0
 22 23  1  0
 23 24  1  0
 20 25  1  0
 25 26  1  0
 25 27  1  0
 27 28  1  0
 28 29  1  0
 29 30  1  0
 29 31  1  0
 27 32  1  0
  5  3  1  0
 13 10  1  0
 26 16  1  0
  9  3  1  0
 32 16  1  0
 15  5  1  0
 23 21  1  0
  1 33  1  0
  1 34  1  0
  1 35  1  0
  2 36  1  0
  4 37  1  0
  4 38  1  0
  6 39  1  0
  7 40  1  0
  7 41  1  0
  8 42  1  0
  8 43  1  0
  9 44  1  0
 10 45  1  0
 11 46  1  0
 11 47  1  0
 12 48  1  0
 12 49  1  0
 13 50  1  0
 14 51  1  0
 14 52  1  0
 14 53  1  0
 15 54  1  0
 17 55  1  0
 17 56  1  0
 18 57  1  0
 19 58  1  0
 20 59  1  0
 21 60  1  0
 23 61  1  0
 24 62  1  0
 25 63  1  0
 26 64  1  0
 26 65  1  0
 27 66  1  0
 28 67  1  0
 29 68  1  0
 30 69  1  0
 30 70  1  0
 30 71  1  0
 31 72  1  0
 32 73  1  0
 32 74  1  0
M  END
