
     RDKit          2D

 52 55  0  0  0  0  0  0  0  0999 V2000
   -8.2078   30.0214   10.8442 C   0  0  0  0  0  0  0  0  0  0  0  0
   -7.7382   29.8713    9.4275 C   0  0  0  0  0  0  0  0  0  0  0  0
   -7.6835   30.0273    7.9367 C   0  0  0  0  0  0  0  0  0  0  0  0
   -6.5971   29.3541    7.1515 C   0  0  0  0  0  0  0  0  0  0  0  0
   -5.5654   28.5250    7.8571 C   0  0  0  0  0  0  0  0  0  0  0  0
   -5.0957   28.3749    6.4404 C   0  0  0  0  0  0  0  0  0  0  0  0
   -4.8714   28.4086    4.9576 C   0  0  0  0  0  0  0  0  0  0  0  0
   -3.6577   27.5815    4.6535 C   0  0  0  0  0  0  0  0  0  0  0  0
   -2.4373   26.7092    4.6596 C   0  0  0  0  0  0  0  0  0  0  0  0
   -1.3239   25.8466    5.1755 C   0  0  0  0  0  0  0  0  0  0  0  0
   -0.2105   24.9839    5.6914 C   0  0  0  0  0  0  0  0  0  0  0  0
    0.9029   24.1213    6.2074 O   0  0  0  0  0  0  0  0  0  0  0  0
   -0.4556   26.2843    4.0334 C   0  0  0  0  0  0  0  0  0  0  0  0
    0.4127   26.7220    2.8913 C   0  0  0  0  0  0  0  0  0  0  0  0
    1.6095   26.8383    1.9945 C   0  0  0  0  0  0  0  0  0  0  0  0
    1.6599   25.9485    3.2010 C   0  0  0  0  0  0  0  0  0  0  0  0
   -3.1318   27.0366    5.9483 C   0  0  0  0  0  0  0  0  0  0  0  0
   -2.2017   26.2570    6.8300 O   0  0  0  0  0  0  0  0  0  0  0  0
   -4.0205   27.5269    7.0527 C   0  0  0  0  0  0  0  0  0  0  0  0
   -5.6200   28.3690    9.3479 N   0  0  0  0  0  0  0  0  0  0  0  0
   -6.7064   29.0422   10.1331 C   0  0  0  0  0  0  0  0  0  0  0  0
   -8.6774   30.1715   12.2608 H   0  0  0  0  0  0  0  0  0  0  0  0
   -7.0757   29.1552   11.3112 H   0  0  0  0  0  0  0  0  0  0  0  0
   -9.3886   30.8995   10.5533 H   0  0  0  0  0  0  0  0  0  0  0  0
   -8.9330   30.7526    9.2139 H   0  0  0  0  0  0  0  0  0  0  0  0
   -8.8973   30.8544    8.2407 H   0  0  0  0  0  0  0  0  0  0  0  0
   -8.0504   30.4705    6.5514 H   0  0  0  0  0  0  0  0  0  0  0  0
   -7.3414   30.0311    6.0389 H   0  0  0  0  0  0  0  0  0  0  0  0
   -6.2188   29.1726    6.4736 H   0  0  0  0  0  0  0  0  0  0  0  0
   -4.4118   27.6499    8.2491 H   0  0  0  0  0  0  0  0  0  0  0  0
   -5.6921   28.8349    6.1793 H   0  0  0  0  0  0  0  0  0  0  0  0
   -6.0918   29.2809    4.9515 H   0  0  0  0  0  0  0  0  0  0  0  0
   -4.9023   28.6247    3.4736 H   0  0  0  0  0  0  0  0  0  0  0  0
   -3.6884   27.7976    3.1694 H   0  0  0  0  0  0  0  0  0  0  0  0
   -2.2764   26.7890    3.1705 H   0  0  0  0  0  0  0  0  0  0  0  0
   -1.8971   25.2131    6.4085 H   0  0  0  0  0  0  0  0  0  0  0  0
   -0.7189   25.1649    7.0910 H   0  0  0  0  0  0  0  0  0  0  0  0
    0.5521   24.5996    4.4582 H   0  0  0  0  0  0  0  0  0  0  0  0
    1.0190   23.8462    7.6773 H   0  0  0  0  0  0  0  0  0  0  0  0
    0.7359   25.6652    4.7020 H   0  0  0  0  0  0  0  0  0  0  0  0
   -1.5324   26.9521    3.2306 H   0  0  0  0  0  0  0  0  0  0  0  0
   -0.5330   27.6475    2.1849 H   0  0  0  0  0  0  0  0  0  0  0  0
    1.0793   27.8042    0.9766 H   0  0  0  0  0  0  0  0  0  0  0  0
    2.9903   26.6191    1.4512 H   0  0  0  0  0  0  0  0  0  0  0  0
    3.0584   25.4203    3.0767 H   0  0  0  0  0  0  0  0  0  0  0  0
    1.5628   25.1032    4.4363 H   0  0  0  0  0  0  0  0  0  0  0  0
   -2.4260   26.2233    8.3127 H   0  0  0  0  0  0  0  0  0  0  0  0
   -3.0904   26.7474    7.9344 H   0  0  0  0  0  0  0  0  0  0  0  0
   -4.5868   27.7521    8.4233 H   0  0  0  0  0  0  0  0  0  0  0  0
   -4.5882   27.5398   10.0536 H   0  0  0  0  0  0  0  0  0  0  0  0
   -5.9621   28.3651   11.2456 H   0  0  0  0  0  0  0  0  0  0  0  0
   -7.4182   29.3837   11.4086 H   0  0  0  0  0  0  0  0  0  0  0  0
  1  2  1  0
  2  3  1  0
  3  4  1  0
  4  5  1  0
  5  6  1  0
  6  7  1  0
  7  8  1  0
  8  9  1  0
  9 10  1  0
 10 11  1  0
 11 12  1  0
 10 13  1  0
 13 14  1  0
 14 15  1  0
 15 16  1  0
  9 17  1  0
 17 18  1  0
 17 19  1  0
  5 20  1  0
 20 21  1  0
 21  2  1  0
 19  6  1  0
 17  8  1  0
 16 14  1  0
  1 22  1  0
  1 23  1  0
  1 24  1  0
  2 25  1  0
  3 26  1  0
  3 27  1  0
  4 28  1  0
  4 29  1  0
  5 30  1  0
  6 31  1  0
  7 32  1  0
  7 33  1  0
  8 34  1  0
  9 35  1  0
 10 36  1  0
 11 37  1  0
 11 38  1  0
 12 39  1  0
 13 40  1  0
 13 41  1  0
 14 42  1  0
 15 43  1  0
 15 44  1  0
 16 45  1  0
 16 46  1  0
 18 47  1  0
 19 48  1  0
 19 49  1  0
 20 50  1  0
 21 51  1  0
 21 52  1  0
M  END
