
     RDKit          2D

 17 19  0  0  0  0  0  0  0  0999 V2000
   10.8589  -23.6081   -6.0105 O   0  0  0  0  0  0  0  0  0  0  0  0
   11.8238  -22.8959   -6.2054 C   0  0  0  0  0  0  0  0  0  0  0  0
   11.2945  -21.5502   -5.8064 C   0  0  0  0  0  0  0  0  0  0  0  0
   12.6614  -21.9052   -6.3120 C   0  0  0  0  0  0  0  0  0  0  0  0
   13.1907  -23.2509   -6.7110 C   0  0  0  0  0  0  0  0  0  0  0  0
   12.4837  -24.5738   -6.7029 O   0  0  0  0  0  0  0  0  0  0  0  0
   11.0730  -24.8779   -6.2940 N   0  0  0  0  0  0  0  0  0  0  0  0
    9.7109  -25.3946   -5.9366 C   0  0  0  0  0  0  0  0  0  0  0  0
   10.0207  -23.9341   -5.7920 C   0  0  0  0  0  0  0  0  0  0  0  0
   10.1193  -22.4531   -5.5750 O   0  0  0  0  0  0  0  0  0  0  0  0
   11.0737  -20.1006   -5.4906 H   0  0  0  0  0  0  0  0  0  0  0  0
   12.7600  -20.4243   -6.0950 H   0  0  0  0  0  0  0  0  0  0  0  0
   14.0722  -21.6012   -6.7209 H   0  0  0  0  0  0  0  0  0  0  0  0
   14.6152  -23.2770   -7.1800 H   0  0  0  0  0  0  0  0  0  0  0  0
    9.8965  -26.8514   -6.2422 H   0  0  0  0  0  0  0  0  0  0  0  0
    8.2843  -25.4054   -5.4732 H   0  0  0  0  0  0  0  0  0  0  0  0
    8.6074  -23.7973   -5.3081 H   0  0  0  0  0  0  0  0  0  0  0  0
  1  2  2  0
  2  3  1  0
  3  4  1  0
  4  5  1  0
  5  6  1  0
  6  7  1  0
  7  8  1  0
  8  9  1  0
  9 10  1  0
  5  2  1  0
  9  7  1  0
 10  3  1  0
  3 11  1  0
  4 12  1  0
  4 13  1  0
  5 14  1  0
  8 15  1  0
  8 16  1  0
  9 17  1  0
M  END
