
     RDKit          2D

 23 23  0  0  0  0  0  0  0  0999 V2000
   16.6425  -21.0124   -3.1207 C   0  0  0  0  0  0  0  0  0  0  0  0
   16.4515  -20.8987   -4.6042 C   0  0  0  0  0  0  0  0  0  0  0  0
   16.8946  -19.4814   -4.8161 F   0  0  0  0  0  0  0  0  0  0  0  0
   15.9421  -22.2766   -4.9075 C   0  0  0  0  0  0  0  0  0  0  0  0
   16.1066  -21.2773   -6.0140 C   0  0  0  0  0  0  0  0  0  0  0  0
   16.4300  -19.9915   -6.7155 O   0  0  0  0  0  0  0  0  0  0  0  0
   16.2390  -19.8779   -8.1990 C   0  0  0  0  0  0  0  0  0  0  0  0
   15.7547  -21.2968   -8.2453 O   0  0  0  0  0  0  0  0  0  0  0  0
   16.0480  -19.7642   -9.6824 C   0  0  0  0  0  0  0  0  0  0  0  0
   15.8570  -19.6506  -11.1658 C   0  0  0  0  0  0  0  0  0  0  0  0
   15.6660  -19.5370  -12.6493 F   0  0  0  0  0  0  0  0  0  0  0  0
   16.8334  -21.1261   -1.6373 H   0  0  0  0  0  0  0  0  0  0  0  0
   17.0974  -19.7578   -2.9168 H   0  0  0  0  0  0  0  0  0  0  0  0
   16.1567  -22.4308   -3.1668 H   0  0  0  0  0  0  0  0  0  0  0  0
   15.4278  -23.4488   -5.6894 H   0  0  0  0  0  0  0  0  0  0  0  0
   15.8976  -22.9476   -3.7369 H   0  0  0  0  0  0  0  0  0  0  0  0
   15.6495  -22.1024   -7.1803 H   0  0  0  0  0  0  0  0  0  0  0  0
   16.7233  -18.4589   -8.1527 H   0  0  0  0  0  0  0  0  0  0  0  0
   15.3132  -22.0608   -9.4583 H   0  0  0  0  0  0  0  0  0  0  0  0
   15.5458  -21.1594   -9.9095 H   0  0  0  0  0  0  0  0  0  0  0  0
   16.5305  -18.3447   -9.6359 H   0  0  0  0  0  0  0  0  0  0  0  0
   16.3282  -18.2274  -11.1175 H   0  0  0  0  0  0  0  0  0  0  0  0
   15.3858  -21.0738  -11.2143 H   0  0  0  0  0  0  0  0  0  0  0  0
  1  2  1  0
  2  3  1  0
  2  4  1  0
  4  5  1  0
  5  6  1  0
  6  7  1  0
  7  8  1  0
  7  9  1  0
  9 10  1  0
 10 11  1  0
  5  2  1  0
  1 12  1  0
  1 13  1  0
  1 14  1  0
  4 15  1  0
  4 16  1  0
  5 17  1  0
  7 18  1  0
  8 19  1  0
  9 20  1  0
  9 21  1  0
 10 22  1  0
 10 23  1  0
M  END
