
     RDKit          2D

 67 72  0  0  0  0  0  0  0  0999 V2000
    0.1344   26.7713    8.6719 C   0  0  0  0  0  0  0  0  0  0  0  0
    0.5517   25.7131    9.6498 C   0  0  0  0  0  0  0  0  0  0  0  0
    0.9690   24.6550   10.6276 C   0  0  0  0  0  0  0  0  0  0  0  0
    1.3863   23.5969   11.6054 C   0  0  0  0  0  0  0  0  0  0  0  0
    1.8037   22.5387   12.5833 C   0  0  0  0  0  0  0  0  0  0  0  0
    2.2210   21.4806   13.5611 C   0  0  0  0  0  0  0  0  0  0  0  0
    1.8036   22.0056   14.9029 C   0  0  0  0  0  0  0  0  0  0  0  0
    2.3475   20.7694   15.5556 C   0  0  0  0  0  0  0  0  0  0  0  0
    2.7648   20.2445   14.2139 C   0  0  0  0  0  0  0  0  0  0  0  0
    2.8544   20.4078   12.7255 C   0  0  0  0  0  0  0  0  0  0  0  0
    1.9282   22.7689   10.4781 C   0  0  0  0  0  0  0  0  0  0  0  0
    2.3468   21.7114   11.4562 C   0  0  0  0  0  0  0  0  0  0  0  0
    2.8887   20.8833   10.3288 C   0  0  0  0  0  0  0  0  0  0  0  0
    2.4700   21.9408    9.3508 N   0  0  0  0  0  0  0  0  0  0  0  0
    2.5571   22.1030    7.8622 O   0  0  0  0  0  0  0  0  0  0  0  0
    2.0125   23.3388    7.2093 C   0  0  0  0  0  0  0  0  0  0  0  0
    1.4678   24.5745    6.5563 C   0  0  0  0  0  0  0  0  0  0  0  0
    1.8784   24.0462    5.2139 C   0  0  0  0  0  0  0  0  0  0  0  0
    1.3338   25.2819    4.5610 C   0  0  0  0  0  0  0  0  0  0  0  0
    1.7444   24.7536    3.2186 O   0  0  0  0  0  0  0  0  0  0  0  0
    0.7891   26.5177    3.9081 C   0  0  0  0  0  0  0  0  0  0  0  0
    1.2001   25.9895    2.5656 C   0  0  0  0  0  0  0  0  0  0  0  0
    0.6555   27.2253    1.9127 C   0  0  0  0  0  0  0  0  0  0  0  0
    0.2645   28.2374    0.8769 C   0  0  0  0  0  0  0  0  0  0  0  0
   -0.3881   29.3910    1.5793 C   0  0  0  0  0  0  0  0  0  0  0  0
   -0.4005   29.0920    3.0491 C   0  0  0  0  0  0  0  0  0  0  0  0
    0.2445   27.7535    3.2552 C   0  0  0  0  0  0  0  0  0  0  0  0
    0.9232   25.8103    5.9035 O   0  0  0  0  0  0  0  0  0  0  0  0
   -0.2830   27.8294    7.6941 H   0  0  0  0  0  0  0  0  0  0  0  0
   -0.4097   27.5983    9.7989 H   0  0  0  0  0  0  0  0  0  0  0  0
    0.6784   25.9444    7.5449 H   0  0  0  0  0  0  0  0  0  0  0  0
    1.0409   25.0215    8.4119 H   0  0  0  0  0  0  0  0  0  0  0  0
    0.0075   26.5400   10.7768 H   0  0  0  0  0  0  0  0  0  0  0  0
    0.7825   23.7492    9.4466 H   0  0  0  0  0  0  0  0  0  0  0  0
    1.1057   25.6976   11.6974 H   0  0  0  0  0  0  0  0  0  0  0  0
    0.8445   24.4249   12.7327 H   0  0  0  0  0  0  0  0  0  0  0  0
    1.2139   23.4890   13.5828 H   0  0  0  0  0  0  0  0  0  0  0  0
    2.1171   22.0337   12.0520 H   0  0  0  0  0  0  0  0  0  0  0  0
    1.3863   22.5305   16.2445 H   0  0  0  0  0  0  0  0  0  0  0  0
    1.2130   23.2964   14.4184 H   0  0  0  0  0  0  0  0  0  0  0  0
    2.8914   19.5333   16.2085 H   0  0  0  0  0  0  0  0  0  0  0  0
    1.9302   21.2944   16.8974 H   0  0  0  0  0  0  0  0  0  0  0  0
    3.3982   18.9145   14.4972 H   0  0  0  0  0  0  0  0  0  0  0  0
    3.5392   19.1235   12.3631 H   0  0  0  0  0  0  0  0  0  0  0  0
    2.9557   20.5480   11.2355 H   0  0  0  0  0  0  0  0  0  0  0  0
    1.5787   23.7174    9.3700 H   0  0  0  0  0  0  0  0  0  0  0  0
    2.8842   20.4849   12.1322 H   0  0  0  0  0  0  0  0  0  0  0  0
    1.9224   22.2589   12.7865 H   0  0  0  0  0  0  0  0  0  0  0  0
    3.4305   20.0553    9.2016 H   0  0  0  0  0  0  0  0  0  0  0  0
    3.3074   19.8258   11.3068 H   0  0  0  0  0  0  0  0  0  0  0  0
    1.6037   23.8680    8.5520 H   0  0  0  0  0  0  0  0  0  0  0  0
    2.4846   22.6628    5.9562 H   0  0  0  0  0  0  0  0  0  0  0  0
    0.9939   25.2496    7.8093 H   0  0  0  0  0  0  0  0  0  0  0  0
    2.3524   23.3712    3.9610 H   0  0  0  0  0  0  0  0  0  0  0  0
    2.4691   22.7553    5.6982 H   0  0  0  0  0  0  0  0  0  0  0  0
    2.3860   23.4295    2.9272 H   0  0  0  0  0  0  0  0  0  0  0  0
    0.3782   27.0459    5.2505 H   0  0  0  0  0  0  0  0  0  0  0  0
    1.6111   25.4615    1.2232 H   0  0  0  0  0  0  0  0  0  0  0  0
    1.8280   24.6627    2.8743 H   0  0  0  0  0  0  0  0  0  0  0  0
    1.1466   26.5104    0.6890 H   0  0  0  0  0  0  0  0  0  0  0  0
    0.8615   27.2523   -0.0839 H   0  0  0  0  0  0  0  0  0  0  0  0
   -0.0017   29.0435   -0.3597 H   0  0  0  0  0  0  0  0  0  0  0  0
   -0.5179   29.9560    0.1957 H   0  0  0  0  0  0  0  0  0  0  0  0
   -1.0679   30.6628    1.9924 H   0  0  0  0  0  0  0  0  0  0  0  0
   -1.0777   30.4262    3.1549 H   0  0  0  0  0  0  0  0  0  0  0  0
   -0.5544   29.0718    4.5410 H   0  0  0  0  0  0  0  0  0  0  0  0
   -0.0762   28.0818    4.6832 H   0  0  0  0  0  0  0  0  0  0  0  0
  1  2  1  0
  2  3  1  0
  3  4  1  0
  4  5  1  0
  5  6  1  0
  6  7  1  0
  7  8  1  0
  8  9  1  0
  9 10  1  0
  4 11  1  0
 11 12  1  0
 12 13  1  0
 13 14  1  0
 14 15  1  0
 15 16  1  0
 16 17  1  0
 17 18  1  0
 18 19  1  0
 19 20  1  0
 19 21  1  0
 21 22  1  0
 22 23  1  0
 23 24  1  0
 24 25  1  0
 25 26  1  0
 26 27  1  0
 19 28  1  0
  9  6  1  0
 14 11  1  0
 28 17  1  0
 10  6  1  0
 27 21  1  0
 27 23  1  0
  1 29  1  0
  1 30  1  0
  1 31  1  0
  2 32  1  0
  2 33  1  0
  3 34  1  0
  3 35  1  0
  4 36  1  0
  5 37  1  0
  5 38  1  0
  7 39  1  0
  7 40  1  0
  8 41  1  0
  8 42  1  0
  9 43  1  0
 10 44  1  0
 10 45  1  0
 11 46  1  0
 12 47  1  0
 12 48  1  0
 13 49  1  0
 13 50  1  0
 16 51  1  0
 16 52  1  0
 17 53  1  0
 18 54  1  0
 18 55  1  0
 20 56  1  0
 21 57  1  0
 22 58  1  0
 22 59  1  0
 23 60  1  0
 24 61  1  0
 24 62  1  0
 25 63  1  0
 25 64  1  0
 26 65  1  0
 26 66  1  0
 27 67  1  0
M  END
