
     RDKit          2D

 53 60  0  0  0  0  0  0  0  0999 V2000
   18.4801  -24.8911  -11.4782 C   0  0  0  0  0  0  0  0  0  0  0  0
   19.1402  -23.7161  -12.1369 C   0  0  0  0  0  0  0  0  0  0  0  0
   18.7665  -22.9983  -10.8738 C   0  0  0  0  0  0  0  0  0  0  0  0
   19.2450  -21.5812  -10.9871 C   0  0  0  0  0  0  0  0  0  0  0  0
   19.5990  -20.1339  -10.8142 O   0  0  0  0  0  0  0  0  0  0  0  0
   19.9143  -21.4231  -12.3202 C   0  0  0  0  0  0  0  0  0  0  0  0
   20.5097  -21.5676  -13.6893 C   0  0  0  0  0  0  0  0  0  0  0  0
   21.0252  -20.1744  -13.8976 C   0  0  0  0  0  0  0  0  0  0  0  0
   19.8495  -22.7426  -13.0307 C   0  0  0  0  0  0  0  0  0  0  0  0
   19.4013  -22.8200  -12.1197 C   0  0  0  0  0  0  0  0  0  0  0  0
   18.8379  -21.9698  -10.3647 C   0  0  0  0  0  0  0  0  0  0  0  0
   18.4238  -21.3366   -9.0694 C   0  0  0  0  0  0  0  0  0  0  0  0
   18.3112  -20.2005   -8.0965 C   0  0  0  0  0  0  0  0  0  0  0  0
   18.4512  -18.8262   -7.5119 F   0  0  0  0  0  0  0  0  0  0  0  0
   17.6322  -20.4091   -6.7752 C   0  0  0  0  0  0  0  0  0  0  0  0
   17.8805  -21.3524   -7.9148 C   0  0  0  0  0  0  0  0  0  0  0  0
   18.2280  -22.1216   -9.1548 C   0  0  0  0  0  0  0  0  0  0  0  0
   17.9447  -23.5597   -9.4734 C   0  0  0  0  0  0  0  0  0  0  0  0
   17.2440  -24.5839   -8.6307 C   0  0  0  0  0  0  0  0  0  0  0  0
   16.6535  -24.4228   -7.2612 C   0  0  0  0  0  0  0  0  0  0  0  0
   16.6179  -23.1978   -6.3962 C   0  0  0  0  0  0  0  0  0  0  0  0
   15.8957  -24.0581   -5.4020 C   0  0  0  0  0  0  0  0  0  0  0  0
   16.4744  -22.1014   -5.3827 C   0  0  0  0  0  0  0  0  0  0  0  0
   17.1639  -21.8313   -6.6871 C   0  0  0  0  0  0  0  0  0  0  0  0
   17.8200  -26.0661  -10.8196 H   0  0  0  0  0  0  0  0  0  0  0  0
   18.7860  -25.7361  -12.6792 H   0  0  0  0  0  0  0  0  0  0  0  0
   18.0960  -24.1955  -10.2059 H   0  0  0  0  0  0  0  0  0  0  0  0
   19.3758  -24.6795  -13.2622 H   0  0  0  0  0  0  0  0  0  0  0  0
   18.5797  -22.5938  -10.2128 H   0  0  0  0  0  0  0  0  0  0  0  0
   18.1356  -24.2425  -10.3223 H   0  0  0  0  0  0  0  0  0  0  0  0
   18.8392  -20.9302   -9.6982 H   0  0  0  0  0  0  0  0  0  0  0  0
   20.3166  -19.2564  -11.7965 H   0  0  0  0  0  0  0  0  0  0  0  0
   20.9259  -22.1960  -14.9862 H   0  0  0  0  0  0  0  0  0  0  0  0
   21.5407  -18.7814  -14.1058 H   0  0  0  0  0  0  0  0  0  0  0  0
   21.5204  -20.5613  -15.2596 H   0  0  0  0  0  0  0  0  0  0  0  0
   20.5965  -19.6207  -12.5711 H   0  0  0  0  0  0  0  0  0  0  0  0
   18.5562  -24.5208  -11.4030 H   0  0  0  0  0  0  0  0  0  0  0  0
   19.4456  -20.0338  -10.4210 H   0  0  0  0  0  0  0  0  0  0  0  0
   19.1428  -20.4399  -10.0333 H   0  0  0  0  0  0  0  0  0  0  0  0
   19.0387  -19.5147   -9.2147 H   0  0  0  0  0  0  0  0  0  0  0  0
   17.7592  -19.0432   -6.1683 H   0  0  0  0  0  0  0  0  0  0  0  0
   18.5966  -20.4297   -8.8559 H   0  0  0  0  0  0  0  0  0  0  0  0
   18.4842  -20.6911   -8.7832 H   0  0  0  0  0  0  0  0  0  0  0  0
   18.9038  -21.9298  -10.4801 H   0  0  0  0  0  0  0  0  0  0  0  0
   17.5914  -25.3530   -9.8706 H   0  0  0  0  0  0  0  0  0  0  0  0
   16.7606  -25.9983   -8.5051 H   0  0  0  0  0  0  0  0  0  0  0  0
   16.2906  -25.8700   -7.4151 H   0  0  0  0  0  0  0  0  0  0  0  0
   15.9269  -25.0646   -6.1167 H   0  0  0  0  0  0  0  0  0  0  0  0
   15.1736  -24.9183   -4.4079 H   0  0  0  0  0  0  0  0  0  0  0  0
   15.7151  -23.0067   -4.3476 H   0  0  0  0  0  0  0  0  0  0  0  0
   15.9003  -25.3192   -6.2141 H   0  0  0  0  0  0  0  0  0  0  0  0
   15.7501  -22.6844   -4.2055 H   0  0  0  0  0  0  0  0  0  0  0  0
   16.5835  -20.7479   -4.7453 H   0  0  0  0  0  0  0  0  0  0  0  0
  1  2  1  0
  2  3  1  0
  3  4  1  0
  4  5  1  0
  4  6  1  0
  6  7  1  0
  7  8  1  0
  7  9  1  0
  9 10  1  0
 10 11  1  0
 11 12  1  0
 12 13  1  0
 13 14  1  0
 13 15  1  0
 15 16  1  0
 16 17  1  0
 17 18  1  0
 18 19  1  0
 19 20  1  0
 20 21  1  0
 21 22  1  0
 21 23  1  0
 23 24  1  0
  9  2  1  0
 18 11  1  0
 24 21  1  0
  9  6  1  0
 18 12  1  0
 10  6  1  0
 24 15  1  0
 24 16  1  0
  1 25  1  0
  1 26  1  0
  1 27  1  0
  2 28  1  0
  3 29  1  0
  3 30  1  0
  4 31  1  0
  5 32  1  0
  7 33  1  0
  8 34  1  0
  8 35  1  0
  8 36  1  0
 10 37  1  0
 11 38  1  0
 12 39  1  0
 13 40  1  0
 15 41  1  0
 16 42  1  0
 17 43  1  0
 17 44  1  0
 19 45  1  0
 19 46  1  0
 20 47  1  0
 20 48  1  0
 22 49  1  0
 22 50  1  0
 22 51  1  0
 23 52  1  0
 23 53  1  0
M  END
