
     RDKit          2D

 50 52  0  0  0  0  0  0  0  0999 V2000
   19.4993  -20.8366  -17.1702 C   0  0  0  0  0  0  0  0  0  0  0  0
   20.1557  -20.4815  -15.8690 C   0  0  0  0  0  0  0  0  0  0  0  0
   20.8122  -20.1265  -14.5678 C   0  0  0  0  0  0  0  0  0  0  0  0
   21.4685  -19.7714  -13.2666 C   0  0  0  0  0  0  0  0  0  0  0  0
   22.1249  -19.4163  -11.9654 C   0  0  0  0  0  0  0  0  0  0  0  0
   20.9627  -20.0017  -11.2194 C   0  0  0  0  0  0  0  0  0  0  0  0
   21.7928  -19.5594  -10.0510 O   0  0  0  0  0  0  0  0  0  0  0  0
   20.0602  -20.4487  -10.1078 C   0  0  0  0  0  0  0  0  0  0  0  0
   18.8461  -21.0801  -10.7220 C   0  0  0  0  0  0  0  0  0  0  0  0
   18.4216  -21.2776   -9.2969 C   0  0  0  0  0  0  0  0  0  0  0  0
   18.5882  -21.1710   -7.8100 C   0  0  0  0  0  0  0  0  0  0  0  0
   17.6567  -21.6334   -6.7290 C   0  0  0  0  0  0  0  0  0  0  0  0
   16.3285  -22.3164   -6.8679 C   0  0  0  0  0  0  0  0  0  0  0  0
   15.6038  -22.7059   -8.1222 C   0  0  0  0  0  0  0  0  0  0  0  0
   16.0283  -22.5085   -9.5473 C   0  0  0  0  0  0  0  0  0  0  0  0
   17.2823  -21.8728  -10.0700 C   0  0  0  0  0  0  0  0  0  0  0  0
   16.5576  -22.2623  -11.3242 C   0  0  0  0  0  0  0  0  0  0  0  0
   18.2138  -21.4104  -11.1510 O   0  0  0  0  0  0  0  0  0  0  0  0
   18.9981  -21.0233  -12.2132 O   0  0  0  0  0  0  0  0  0  0  0  0
   20.3063  -20.3568  -12.5206 C   0  0  0  0  0  0  0  0  0  0  0  0
   18.8429  -21.1917  -18.4714 H   0  0  0  0  0  0  0  0  0  0  0  0
   18.2036  -20.2686  -16.6715 H   0  0  0  0  0  0  0  0  0  0  0  0
   20.7950  -21.4046  -17.6688 H   0  0  0  0  0  0  0  0  0  0  0  0
   18.8213  -20.5217  -15.1849 H   0  0  0  0  0  0  0  0  0  0  0  0
   21.4900  -20.4413  -16.5531 H   0  0  0  0  0  0  0  0  0  0  0  0
   19.4079  -20.2113  -14.0471 H   0  0  0  0  0  0  0  0  0  0  0  0
   22.1462  -20.0846  -15.2522 H   0  0  0  0  0  0  0  0  0  0  0  0
   22.6307  -19.1860  -14.0126 H   0  0  0  0  0  0  0  0  0  0  0  0
   23.2871  -18.8309  -12.7115 H   0  0  0  0  0  0  0  0  0  0  0  0
   22.7673  -19.0730  -10.9930 H   0  0  0  0  0  0  0  0  0  0  0  0
   22.8736  -19.0057  -10.0897 H   0  0  0  0  0  0  0  0  0  0  0  0
   21.1326  -19.8863   -9.2225 H   0  0  0  0  0  0  0  0  0  0  0  0
   19.6802  -20.6231   -8.6673 H   0  0  0  0  0  0  0  0  0  0  0  0
   18.2115  -21.4105  -11.0736 H   0  0  0  0  0  0  0  0  0  0  0  0
   19.7497  -20.5944   -9.1579 H   0  0  0  0  0  0  0  0  0  0  0  0
   19.9155  -20.4927   -7.9771 H   0  0  0  0  0  0  0  0  0  0  0  0
   19.4441  -20.7158   -6.6654 H   0  0  0  0  0  0  0  0  0  0  0  0
   18.7026  -21.0838   -5.8049 H   0  0  0  0  0  0  0  0  0  0  0  0
   17.3897  -21.7494   -5.2575 H   0  0  0  0  0  0  0  0  0  0  0  0
   16.3325  -22.2931   -5.3681 H   0  0  0  0  0  0  0  0  0  0  0  0
   15.1395  -22.9164   -6.1776 H   0  0  0  0  0  0  0  0  0  0  0  0
   14.5627  -23.2264   -7.1760 H   0  0  0  0  0  0  0  0  0  0  0  0
   14.3883  -23.3380   -8.7328 H   0  0  0  0  0  0  0  0  0  0  0  0
   14.7262  -23.1808   -9.8672 H   0  0  0  0  0  0  0  0  0  0  0  0
   15.7015  -22.6967  -10.9991 H   0  0  0  0  0  0  0  0  0  0  0  0
   15.8329  -22.6517  -12.5785 H   0  0  0  0  0  0  0  0  0  0  0  0
   17.3150  -21.3662  -12.2589 H   0  0  0  0  0  0  0  0  0  0  0  0
   15.6236  -23.2533  -10.6955 H   0  0  0  0  0  0  0  0  0  0  0  0
   18.0109  -21.5355  -12.6320 H   0  0  0  0  0  0  0  0  0  0  0  0
   19.6908  -20.6913  -13.8470 H   0  0  0  0  0  0  0  0  0  0  0  0
  1  2  1  0
  2  3  1  0
  3  4  1  0
  4  5  1  0
  5  6  1  0
  6  7  1  0
  6  8  1  0
  8  9  1  0
  9 10  1  0
 10 11  1  0
 11 12  1  0
 12 13  1  0
 13 14  1  0
 14 15  1  0
 15 16  1  0
 16 17  1  0
 16 18  1  0
  9 19  1  0
 19 20  1  0
 20  4  1  0
 20  6  1  0
 16 10  1  0
  1 21  1  0
  1 22  1  0
  1 23  1  0
  2 24  1  0
  2 25  1  0
  3 26  1  0
  3 27  1  0
  4 28  1  0
  5 29  1  0
  5 30  1  0
  7 31  1  0
  8 32  1  0
  8 33  1  0
  9 34  1  0
 10 35  1  0
 11 36  1  0
 11 37  1  0
 12 38  1  0
 12 39  1  0
 13 40  1  0
 13 41  1  0
 14 42  1  0
 14 43  1  0
 15 44  1  0
 15 45  1  0
 17 46  1  0
 17 47  1  0
 17 48  1  0
 18 49  1  0
 20 50  1  0
M  END
