
     RDKit          2D

 78 81  0  0  0  0  0  0  0  0999 V2000
   -0.9803   30.9043    8.1064 C   0  0  0  0  0  0  0  0  0  0  0  0
   -1.1155   29.4331    7.8467 C   0  0  0  0  0  0  0  0  0  0  0  0
   -1.2508   27.9620    7.5870 C   0  0  0  0  0  0  0  0  0  0  0  0
   -1.3859   26.4909    7.3272 C   0  0  0  0  0  0  0  0  0  0  0  0
   -1.5210   25.0197    7.0675 C   0  0  0  0  0  0  0  0  0  0  0  0
   -1.6562   23.5485    6.8078 C   0  0  0  0  0  0  0  0  0  0  0  0
   -1.7914   22.0774    6.5480 C   0  0  0  0  0  0  0  0  0  0  0  0
   -3.1127   23.6203    7.1591 N   0  0  0  0  0  0  0  0  0  0  0  0
   -3.9581   22.3822    7.1099 C   0  0  0  0  0  0  0  0  0  0  0  0
   -0.0616   24.9453    6.7295 C   0  0  0  0  0  0  0  0  0  0  0  0
    1.3979   24.8709    6.3915 C   0  0  0  0  0  0  0  0  0  0  0  0
    2.8575   24.7964    6.0534 C   0  0  0  0  0  0  0  0  0  0  0  0
    4.3170   24.7220    5.7154 C   0  0  0  0  0  0  0  0  0  0  0  0
    3.9952   26.1435    6.0699 C   0  0  0  0  0  0  0  0  0  0  0  0
    4.5754   27.5191    6.2154 C   0  0  0  0  0  0  0  0  0  0  0  0
    5.8361   28.3232    6.0965 C   0  0  0  0  0  0  0  0  0  0  0  0
    7.2956   28.2488    5.7585 C   0  0  0  0  0  0  0  0  0  0  0  0
    8.6842   28.7789    5.5566 C   0  0  0  0  0  0  0  0  0  0  0  0
    8.3965   27.3243    5.3305 C   0  0  0  0  0  0  0  0  0  0  0  0
    8.7183   25.9027    4.9760 C   0  0  0  0  0  0  0  0  0  0  0  0
    9.5939   24.7601    4.5544 C   0  0  0  0  0  0  0  0  0  0  0  0
   10.9037   25.4762    4.4071 C   0  0  0  0  0  0  0  0  0  0  0  0
   12.2135   26.1922    4.2597 C   0  0  0  0  0  0  0  0  0  0  0  0
    8.1381   24.5271    4.8304 C   0  0  0  0  0  0  0  0  0  0  0  0
    6.8774   23.7230    4.9494 C   0  0  0  0  0  0  0  0  0  0  0  0
    5.4179   23.7975    5.2874 O   0  0  0  0  0  0  0  0  0  0  0  0
   -0.1974   23.4747    6.4666 C   0  0  0  0  0  0  0  0  0  0  0  0
   -0.8242   22.1183    6.3352 C   0  0  0  0  0  0  0  0  0  0  0  0
   -1.6584   23.2926    6.7539 C   0  0  0  0  0  0  0  0  0  0  0  0
   -0.8452   32.3754    8.3662 H   0  0  0  0  0  0  0  0  0  0  0  0
   -2.4426   30.9812    8.4316 H   0  0  0  0  0  0  0  0  0  0  0  0
    0.4819   30.8273    7.7813 H   0  0  0  0  0  0  0  0  0  0  0  0
   -2.5802   29.5122    8.1610 H   0  0  0  0  0  0  0  0  0  0  0  0
    0.3490   29.3540    7.5325 H   0  0  0  0  0  0  0  0  0  0  0  0
    0.2095   27.8869    7.2522 H   0  0  0  0  0  0  0  0  0  0  0  0
   -2.7110   28.0370    7.9218 H   0  0  0  0  0  0  0  0  0  0  0  0
    0.1103   26.5548    7.2422 H   0  0  0  0  0  0  0  0  0  0  0  0
   -2.8768   26.6071    7.4448 H   0  0  0  0  0  0  0  0  0  0  0  0
   -2.9532   25.2729    7.4347 H   0  0  0  0  0  0  0  0  0  0  0  0
   -0.9226   23.3224    6.5932 H   0  0  0  0  0  0  0  0  0  0  0  0
   -1.9266   20.6063    6.2883 H   0  0  0  0  0  0  0  0  0  0  0  0
   -3.2013   21.6185    6.7756 H   0  0  0  0  0  0  0  0  0  0  0  0
   -0.4092   21.6502    6.1519 H   0  0  0  0  0  0  0  0  0  0  0  0
   -3.8813   24.8385    7.5780 H   0  0  0  0  0  0  0  0  0  0  0  0
   -4.8035   21.1441    7.0606 H   0  0  0  0  0  0  0  0  0  0  0  0
   -3.6266   22.0988    8.5450 H   0  0  0  0  0  0  0  0  0  0  0  0
   -4.3901   22.5126    5.6794 H   0  0  0  0  0  0  0  0  0  0  0  0
    0.2512   26.3958    6.9492 H   0  0  0  0  0  0  0  0  0  0  0  0
    1.5340   26.3412    6.6548 H   0  0  0  0  0  0  0  0  0  0  0  0
    1.6192   23.4261    6.0541 H   0  0  0  0  0  0  0  0  0  0  0  0
    2.8142   26.2653    6.3545 H   0  0  0  0  0  0  0  0  0  0  0  0
    2.7219   23.3257    5.7915 H   0  0  0  0  0  0  0  0  0  0  0  0
    3.7368   23.3465    5.5698 H   0  0  0  0  0  0  0  0  0  0  0  0
    2.8943   27.0681    6.4979 H   0  0  0  0  0  0  0  0  0  0  0  0
    2.5910   25.6618    6.2848 H   0  0  0  0  0  0  0  0  0  0  0  0
    4.0817   28.8833    6.5966 H   0  0  0  0  0  0  0  0  0  0  0  0
    3.1433   27.7722    6.5830 H   0  0  0  0  0  0  0  0  0  0  0  0
    6.2479   29.7526    6.2901 H   0  0  0  0  0  0  0  0  0  0  0  0
    4.8614   29.3806    6.5230 H   0  0  0  0  0  0  0  0  0  0  0  0
    7.3038   29.7203    6.0498 H   0  0  0  0  0  0  0  0  0  0  0  0
    8.4629   30.2238    5.8934 H   0  0  0  0  0  0  0  0  0  0  0  0
   10.1497   28.8072    5.2377 H   0  0  0  0  0  0  0  0  0  0  0  0
    9.8145   27.7574    5.1027 H   0  0  0  0  0  0  0  0  0  0  0  0
   10.0502   26.5735    4.8147 H   0  0  0  0  0  0  0  0  0  0  0  0
   10.0147   23.3688    4.1841 H   0  0  0  0  0  0  0  0  0  0  0  0
   10.2467   26.7618    4.8136 H   0  0  0  0  0  0  0  0  0  0  0  0
   11.8583   24.4020    3.9769 H   0  0  0  0  0  0  0  0  0  0  0  0
   13.5234   26.9082    4.1122 H   0  0  0  0  0  0  0  0  0  0  0  0
   12.8236   24.9549    3.6708 H   0  0  0  0  0  0  0  0  0  0  0  0
   11.6034   27.4296    4.8485 H   0  0  0  0  0  0  0  0  0  0  0  0
    8.7734   23.2284    4.4310 H   0  0  0  0  0  0  0  0  0  0  0  0
    6.2973   22.3475    4.8038 H   0  0  0  0  0  0  0  0  0  0  0  0
    7.8521   22.6657    4.5229 H   0  0  0  0  0  0  0  0  0  0  0  0
    1.0806   22.8086    6.0508 H   0  0  0  0  0  0  0  0  0  0  0  0
    0.3718   21.3187    5.9110 H   0  0  0  0  0  0  0  0  0  0  0  0
   -1.8664   21.0396    6.3511 H   0  0  0  0  0  0  0  0  0  0  0  0
   -2.9903   22.6218    6.9152 H   0  0  0  0  0  0  0  0  0  0  0  0
   -2.3619   24.5532    7.1609 H   0  0  0  0  0  0  0  0  0  0  0  0
  1  2  1  0
  2  3  1  0
  3  4  1  0
  4  5  1  0
  5  6  1  0
  6  7  1  0
  6  8  1  0
  8  9  1  0
  5 10  1  0
 10 11  1  0
 11 12  1  0
 12 13  1  0
 13 14  1  0
 14 15  1  0
 15 16  1  0
 16 17  1  0
 17 18  1  0
 18 19  1  0
 19 20  1  0
 20 21  1  0
 21 22  1  0
 22 23  1  0
 21 24  1  0
 24 25  1  0
 25 26  1  0
 10 27  1  0
 27 28  1  0
 28 29  1  0
 26 13  1  0
 29 27  1  0
 19 17  1  0
 24 20  1  0
  1 30  1  0
  1 31  1  0
  1 32  1  0
  2 33  1  0
  2 34  1  0
  3 35  1  0
  3 36  1  0
  4 37  1  0
  4 38  1  0
  5 39  1  0
  6 40  1  0
  7 41  1  0
  7 42  1  0
  7 43  1  0
  8 44  1  0
  9 45  1  0
  9 46  1  0
  9 47  1  0
 10 48  1  0
 11 49  1  0
 11 50  1  0
 12 51  1  0
 12 52  1  0
 13 53  1  0
 14 54  1  0
 14 55  1  0
 15 56  1  0
 15 57  1  0
 16 58  1  0
 16 59  1  0
 17 60  1  0
 18 61  1  0
 18 62  1  0
 19 63  1  0
 20 64  1  0
 21 65  1  0
 22 66  1  0
 22 67  1  0
 23 68  1  0
 23 69  1  0
 23 70  1  0
 24 71  1  0
 25 72  1  0
 25 73  1  0
 27 74  1  0
 28 75  1  0
 28 76  1  0
 29 77  1  0
 29 78  1  0
M  END
