
     RDKit          2D

 46 47  0  0  0  0  0  0  0  0999 V2000
   26.2698  -25.0993  -11.8400 C   0  0  0  0  0  0  0  0  0  0  0  0
   25.5527  -23.8437  -11.4407 C   0  0  0  0  0  0  0  0  0  0  0  0
   26.3619  -23.4524  -10.2398 C   0  0  0  0  0  0  0  0  0  0  0  0
   25.2032  -22.6037  -10.6725 C   0  0  0  0  0  0  0  0  0  0  0  0
   24.0236  -22.1284  -11.4678 C   0  0  0  0  0  0  0  0  0  0  0  0
   22.8440  -21.6530  -12.2633 C   0  0  0  0  0  0  0  0  0  0  0  0
   21.4619  -22.1097  -11.9008 O   0  0  0  0  0  0  0  0  0  0  0  0
   23.0465  -20.7211  -13.4210 C   0  0  0  0  0  0  0  0  0  0  0  0
   23.2490  -19.7891  -14.5788 C   0  0  0  0  0  0  0  0  0  0  0  0
   23.4514  -18.8571  -15.7366 C   0  0  0  0  0  0  0  0  0  0  0  0
   23.5914  -17.5794  -16.5097 N   0  0  0  0  0  0  0  0  0  0  0  0
   23.3419  -17.5379  -15.0312 C   0  0  0  0  0  0  0  0  0  0  0  0
   23.3158  -16.0540  -14.8131 C   0  0  0  0  0  0  0  0  0  0  0  0
   23.0672  -16.2734  -13.3502 O   0  0  0  0  0  0  0  0  0  0  0  0
   23.2898  -14.5703  -14.5950 C   0  0  0  0  0  0  0  0  0  0  0  0
   23.2638  -13.0864  -14.3768 C   0  0  0  0  0  0  0  0  0  0  0  0
   23.5122  -12.8670  -15.8397 O   0  0  0  0  0  0  0  0  0  0  0  0
       nan       nan       nan C   0  0  0  0  0  0  0  0  0  0  0  0
       nan       nan       nan O   0  0  0  0  0  0  0  0  0  0  0  0
       nan       nan       nan C   0  0  0  0  0  0  0  0  0  0  0  0
       nan       nan       nan O   0  0  0  0  0  0  0  0  0  0  0  0
       nan       nan       nan Br  0  0  0  0  0  0  0  0  0  0  0  0
   26.9869  -26.3548  -12.2393 H   0  0  0  0  0  0  0  0  0  0  0  0
   25.5015  -25.3942  -12.9102 H   0  0  0  0  0  0  0  0  0  0  0  0
   27.2180  -24.9232  -10.6911 H   0  0  0  0  0  0  0  0  0  0  0  0
   24.6669  -23.9428  -12.4546 H   0  0  0  0  0  0  0  0  0  0  0  0
   26.8244  -22.6722   -9.0451 H   0  0  0  0  0  0  0  0  0  0  0  0
   27.3243  -24.3873  -10.0905 H   0  0  0  0  0  0  0  0  0  0  0  0
   25.2633  -21.5288   -9.6280 H   0  0  0  0  0  0  0  0  0  0  0  0
   23.7629  -21.0264  -10.7329 H   0  0  0  0  0  0  0  0  0  0  0  0
   24.1706  -23.3036  -12.3883 H   0  0  0  0  0  0  0  0  0  0  0  0
   22.8954  -19.5458  -12.5014 H   0  0  0  0  0  0  0  0  0  0  0  0
   23.1976  -21.8964  -14.3407 H   0  0  0  0  0  0  0  0  0  0  0  0
   22.6413  -20.8036  -15.5016 H   0  0  0  0  0  0  0  0  0  0  0  0
   23.7695  -18.9852  -13.6274 H   0  0  0  0  0  0  0  0  0  0  0  0
   23.6313  -19.8527  -16.8440 H   0  0  0  0  0  0  0  0  0  0  0  0
   23.8163  -16.8657  -17.8098 H   0  0  0  0  0  0  0  0  0  0  0  0
   23.1195  -17.8049  -13.7267 H   0  0  0  0  0  0  0  0  0  0  0  0
   23.5644  -15.8346  -16.2760 H   0  0  0  0  0  0  0  0  0  0  0  0
   22.8954  -15.2205  -12.2958 H   0  0  0  0  0  0  0  0  0  0  0  0
   23.5381  -14.3507  -16.0579 H   0  0  0  0  0  0  0  0  0  0  0  0
   23.0402  -14.6072  -13.1163 H   0  0  0  0  0  0  0  0  0  0  0  0
   23.0154  -13.3059  -12.9139 H   0  0  0  0  0  0  0  0  0  0  0  0
   23.6413  -11.5499  -16.5459 H   0  0  0  0  0  0  0  0  0  0  0  0
       nan       nan       nan H   0  0  0  0  0  0  0  0  0  0  0  0
       nan       nan       nan H   0  0  0  0  0  0  0  0  0  0  0  0
  1  2  1  0
  2  3  1  0
  3  4  1  0
  4  5  1  0
  5  6  1  0
  6  7  2  0
  6  8  1  0
  8  9  1  0
  9 10  1  0
 10 11  1  0
 11 12  1  0
 12 13  1  0
 13 14  1  0
 13 15  1  0
 15 16  1  0
 16 17  1  0
 16 18  1  0
 18 19  1  0
 19 20  1  0
 20 21  2  0
 20 22  1  0
  4  2  1  0
 12 10  1  0
  1 23  1  0
  1 24  1  0
  1 25  1  0
  2 26  1  0
  3 27  1  0
  3 28  1  0
  4 29  1  0
  5 30  1  0
  5 31  1  0
  8 32  1  0
  8 33  1  0
  9 34  1  0
  9 35  1  0
 10 36  1  0
 11 37  1  0
 12 38  1  0
 13 39  1  0
 14 40  1  0
 15 41  1  0
 15 42  1  0
 16 43  1  0
 17 44  1  0
 18 45  1  0
 18 46  1  0
M  END
