
     RDKit          2D

 57 62  0  0  0  0  0  0  0  0999 V2000
   -2.9185   25.7866    8.6299 C   0  0  0  0  0  0  0  0  0  0  0  0
   -2.2641   25.4296    7.3282 C   0  0  0  0  0  0  0  0  0  0  0  0
   -1.3533   24.4790    8.0470 N   0  0  0  0  0  0  0  0  0  0  0  0
   -1.6097   25.0725    6.0266 C   0  0  0  0  0  0  0  0  0  0  0  0
   -2.3937   25.9460    5.0926 C   0  0  0  0  0  0  0  0  0  0  0  0
   -2.8559   26.5902    3.8193 C   0  0  0  0  0  0  0  0  0  0  0  0
   -3.3204   26.6065    6.0699 C   0  0  0  0  0  0  0  0  0  0  0  0
   -4.2472   27.2669    7.0471 N   0  0  0  0  0  0  0  0  0  0  0  0
   -5.2584   28.2644    6.5652 C   0  0  0  0  0  0  0  0  0  0  0  0
   -4.7792   28.0701    5.1572 C   0  0  0  0  0  0  0  0  0  0  0  0
   -5.7377   28.4588    7.9732 C   0  0  0  0  0  0  0  0  0  0  0  0
   -6.2697   29.2619    6.0833 S   0  0  0  0  0  0  0  0  0  0  0  0
   -1.3065   25.0619    4.5576 C   0  0  0  0  0  0  0  0  0  0  0  0
   -1.0033   25.0513    3.0886 C   0  0  0  0  0  0  0  0  0  0  0  0
   -0.2193   24.1778    4.0226 C   0  0  0  0  0  0  0  0  0  0  0  0
    0.5835   23.6612    2.8656 C   0  0  0  0  0  0  0  0  0  0  0  0
    1.5486   22.6837    3.4682 C   0  0  0  0  0  0  0  0  0  0  0  0
    2.1191   22.4086    2.1085 C   0  0  0  0  0  0  0  0  0  0  0  0
    3.0841   21.4312    2.7112 C   0  0  0  0  0  0  0  0  0  0  0  0
    2.5137   21.7063    4.0709 C   0  0  0  0  0  0  0  0  0  0  0  0
    1.9431   21.9814    5.4307 N   0  0  0  0  0  0  0  0  0  0  0  0
    0.8866   23.6506    1.3965 C   0  0  0  0  0  0  0  0  0  0  0  0
    0.1026   24.5241    0.4626 C   0  0  0  0  0  0  0  0  0  0  0  0
   -0.2006   24.5347    1.9315 C   0  0  0  0  0  0  0  0  0  0  0  0
   -3.5730   26.1437    9.9315 H   0  0  0  0  0  0  0  0  0  0  0  0
   -3.9032   26.7729    8.0750 H   0  0  0  0  0  0  0  0  0  0  0  0
   -2.0934   24.8875    9.5020 H   0  0  0  0  0  0  0  0  0  0  0  0
   -2.8179   25.9657    7.1250 H   0  0  0  0  0  0  0  0  0  0  0  0
   -1.3277   24.1920    9.5190 H   0  0  0  0  0  0  0  0  0  0  0  0
   -0.2824   23.6216    7.4400 H   0  0  0  0  0  0  0  0  0  0  0  0
   -0.5467   24.0597    6.3335 H   0  0  0  0  0  0  0  0  0  0  0  0
   -3.3180   27.2343    2.5459 H   0  0  0  0  0  0  0  0  0  0  0  0
   -3.6369   27.2148    4.2617 H   0  0  0  0  0  0  0  0  0  0  0  0
   -1.8973   25.8904    2.9020 H   0  0  0  0  0  0  0  0  0  0  0  0
   -3.7795   27.1705    5.2533 H   0  0  0  0  0  0  0  0  0  0  0  0
   -3.1149   26.2925    6.7731 H   0  0  0  0  0  0  0  0  0  0  0  0
   -4.1626   26.9298    8.5064 H   0  0  0  0  0  0  0  0  0  0  0  0
   -4.2999   27.8757    3.7492 H   0  0  0  0  0  0  0  0  0  0  0  0
   -5.7914   29.0665    4.6751 H   0  0  0  0  0  0  0  0  0  0  0  0
   -3.6623   27.0702    5.1025 H   0  0  0  0  0  0  0  0  0  0  0  0
   -6.2169   28.6531    9.3813 H   0  0  0  0  0  0  0  0  0  0  0  0
   -6.8007   29.4716    7.6664 H   0  0  0  0  0  0  0  0  0  0  0  0
   -4.7915   27.4933    8.6234 H   0  0  0  0  0  0  0  0  0  0  0  0
   -7.2667   30.0114    6.9167 H   0  0  0  0  0  0  0  0  0  0  0  0
   -1.8914   25.9882    2.3247 H   0  0  0  0  0  0  0  0  0  0  0  0
    0.2069   23.5614    5.3220 H   0  0  0  0  0  0  0  0  0  0  0  0
    0.8647   23.0759    4.7443 H   0  0  0  0  0  0  0  0  0  0  0  0
    2.6896   22.1336    0.7488 H   0  0  0  0  0  0  0  0  0  0  0  0
    1.3208   23.2904    1.1947 H   0  0  0  0  0  0  0  0  0  0  0  0
    4.0492   20.4537    3.3139 H   0  0  0  0  0  0  0  0  0  0  0  0
    3.6547   21.1561    1.3515 H   0  0  0  0  0  0  0  0  0  0  0  0
    3.4787   20.7288    4.6736 H   0  0  0  0  0  0  0  0  0  0  0  0
    2.4941   21.2730    6.6326 H   0  0  0  0  0  0  0  0  0  0  0  0
    0.8522   22.8751    5.9417 H   0  0  0  0  0  0  0  0  0  0  0  0
    1.9739   22.7664    0.8615 H   0  0  0  0  0  0  0  0  0  0  0  0
    0.7571   24.1670   -0.8391 H   0  0  0  0  0  0  0  0  0  0  0  0
   -0.9086   25.5215   -0.0194 H   0  0  0  0  0  0  0  0  0  0  0  0
  1  2  1  0
  2  3  1  0
  2  4  1  0
  4  5  1  0
  5  6  1  0
  5  7  1  0
  7  8  1  0
  8  9  1  0
  9 10  1  0
  9 11  1  0
  9 12  1  0
  5 13  1  0
 13 14  1  0
 14 15  1  0
 15 16  1  0
 16 17  1  0
 17 18  1  0
 18 19  1  0
 19 20  1  0
 20 21  1  0
 16 22  1  0
 22 23  1  0
 23 24  1  0
 13  4  1  0
 24 14  1  0
 15 13  1  0
 24 16  1  0
 20 17  1  0
 24 22  1  0
  1 25  1  0
  1 26  1  0
  1 27  1  0
  2 28  1  0
  3 29  1  0
  3 30  1  0
  4 31  1  0
  6 32  1  0
  6 33  1  0
  6 34  1  0
  7 35  1  0
  7 36  1  0
  8 37  1  0
 10 38  1  0
 10 39  1  0
 10 40  1  0
 11 41  1  0
 11 42  1  0
 11 43  1  0
 12 44  1  0
 14 45  1  0
 15 46  1  0
 17 47  1  0
 18 48  1  0
 18 49  1  0
 19 50  1  0
 19 51  1  0
 20 52  1  0
 21 53  1  0
 21 54  1  0
 22 55  1  0
 23 56  1  0
 23 57  1  0
M  END
