
     RDKit          2D

 32 33  0  0  0  0  0  0  0  0999 V2000
   14.7091  -21.0010   -6.4305 C   0  0  0  0  0  0  0  0  0  0  0  0
   15.8470  -20.0605   -6.1648 C   0  0  0  0  0  0  0  0  0  0  0  0
   16.9850  -19.1200   -5.8992 C   0  0  0  0  0  0  0  0  0  0  0  0
   17.0641  -18.8023   -7.3631 C   0  0  0  0  0  0  0  0  0  0  0  0
   15.9261  -19.7428   -7.6287 C   0  0  0  0  0  0  0  0  0  0  0  0
   16.0053  -19.4251   -9.0925 C   0  0  0  0  0  0  0  0  0  0  0  0
   16.0844  -19.1074  -10.5563 C   0  0  0  0  0  0  0  0  0  0  0  0
   16.1635  -18.7897  -12.0201 C   0  0  0  0  0  0  0  0  0  0  0  0
   14.9488  -20.0505  -10.8224 C   0  0  0  0  0  0  0  0  0  0  0  0
   15.1060  -20.9828   -9.6579 O   0  0  0  0  0  0  0  0  0  0  0  0
   13.7584  -20.6699  -11.4929 C   0  0  0  0  0  0  0  0  0  0  0  0
   14.3969  -19.4458  -12.0793 N   0  0  0  0  0  0  0  0  0  0  0  0
   14.4471  -18.3899  -13.1436 O   0  0  0  0  0  0  0  0  0  0  0  0
   13.5711  -21.9415   -6.6960 H   0  0  0  0  0  0  0  0  0  0  0  0
   14.6315  -21.3205   -4.9669 H   0  0  0  0  0  0  0  0  0  0  0  0
   14.6727  -20.8814   -7.3073 H   0  0  0  0  0  0  0  0  0  0  0  0
   15.7679  -20.3781   -4.7010 H   0  0  0  0  0  0  0  0  0  0  0  0
   16.9058  -19.4377   -4.4354 H   0  0  0  0  0  0  0  0  0  0  0  0
   18.1229  -18.1795   -5.6336 H   0  0  0  0  0  0  0  0  0  0  0  0
   18.2020  -17.8618   -7.0974 H   0  0  0  0  0  0  0  0  0  0  0  0
   17.1923  -18.5484   -8.2018 H   0  0  0  0  0  0  0  0  0  0  0  0
   15.2649  -20.2711   -7.8897 H   0  0  0  0  0  0  0  0  0  0  0  0
   15.3430  -20.0105   -9.0357 H   0  0  0  0  0  0  0  0  0  0  0  0
   16.6768  -18.8498   -9.0419 H   0  0  0  0  0  0  0  0  0  0  0  0
   17.2201  -18.1643  -10.2903 H   0  0  0  0  0  0  0  0  0  0  0  0
   16.2426  -18.4721  -13.4840 H   0  0  0  0  0  0  0  0  0  0  0  0
   17.3018  -17.8497  -11.7546 H   0  0  0  0  0  0  0  0  0  0  0  0
   15.0782  -19.6249  -12.6320 H   0  0  0  0  0  0  0  0  0  0  0  0
   14.1620  -22.1359   -9.4874 H   0  0  0  0  0  0  0  0  0  0  0  0
   13.5023  -21.8173  -10.5612 H   0  0  0  0  0  0  0  0  0  0  0  0
   12.6570  -20.8907  -12.4870 H   0  0  0  0  0  0  0  0  0  0  0  0
   13.4413  -18.3984  -14.2564 H   0  0  0  0  0  0  0  0  0  0  0  0
  1  2  1  0
  2  3  1  0
  3  4  1  0
  4  5  1  0
  5  6  1  0
  6  7  1  0
  7  8  1  0
  7  9  1  0
  9 10  1  0
  9 11  1  0
 11 12  1  0
 12 13  1  0
  5  2  1  0
 12  9  1  0
  1 14  1  0
  1 15  1  0
  1 16  1  0
  2 17  1  0
  3 18  1  0
  3 19  1  0
  4 20  1  0
  4 21  1  0
  5 22  1  0
  6 23  1  0
  6 24  1  0
  7 25  1  0
  8 26  1  0
  8 27  1  0
  8 28  1  0
 10 29  1  0
 11 30  1  0
 11 31  1  0
 13 32  1  0
M  END
