
     RDKit          2D

 33 39  0  0  0  0  0  0  0  0999 V2000
   -2.6102   28.4786    7.7197 O   0  0  0  0  0  0  0  0  0  0  0  0
   -1.4778   28.2887    6.7545 C   0  0  0  0  0  0  0  0  0  0  0  0
   -2.0943   26.9381    6.5405 N   0  0  0  0  0  0  0  0  0  0  0  0
   -1.2635   26.2042    5.5301 C   0  0  0  0  0  0  0  0  0  0  0  0
   -0.2599   25.7320    4.5202 C   0  0  0  0  0  0  0  0  0  0  0  0
    0.9313   25.7358    3.6085 C   0  0  0  0  0  0  0  0  0  0  0  0
    1.9348   25.2636    2.5986 C   0  0  0  0  0  0  0  0  0  0  0  0
    0.8048   24.3665    3.0091 C   0  0  0  0  0  0  0  0  0  0  0  0
    1.1074   23.1638    2.1654 C   0  0  0  0  0  0  0  0  0  0  0  0
   -0.0226   22.2668    2.5759 C   0  0  0  0  0  0  0  0  0  0  0  0
   -0.1490   20.8975    1.9765 C   0  0  0  0  0  0  0  0  0  0  0  0
    0.8546   20.4254    0.9666 C   0  0  0  0  0  0  0  0  0  0  0  0
    0.9810   21.7945    1.5660 C   0  0  0  0  0  0  0  0  0  0  0  0
   -0.1335   27.1012    5.1195 C   0  0  0  0  0  0  0  0  0  0  0  0
    0.8665   28.1997    4.9112 C   0  0  0  0  0  0  0  0  0  0  0  0
   -0.2659   28.3895    5.8763 C   0  0  0  0  0  0  0  0  0  0  0  0
   -3.6102   27.3801    7.9280 H   0  0  0  0  0  0  0  0  0  0  0  0
   -1.0980   29.6790    7.1703 H   0  0  0  0  0  0  0  0  0  0  0  0
   -3.3255   26.4135    7.2181 H   0  0  0  0  0  0  0  0  0  0  0  0
   -2.0897   24.9523    5.5272 H   0  0  0  0  0  0  0  0  0  0  0  0
   -0.9318   24.4007    4.3584 H   0  0  0  0  0  0  0  0  0  0  0  0
    1.4754   26.8141    3.7395 H   0  0  0  0  0  0  0  0  0  0  0  0
    2.8234   26.4701    2.5306 H   0  0  0  0  0  0  0  0  0  0  0  0
    2.7495   24.5092    1.5901 H   0  0  0  0  0  0  0  0  0  0  0  0
   -0.4101   23.7317    3.6181 H   0  0  0  0  0  0  0  0  0  0  0  0
    2.3441   23.4804    1.3778 H   0  0  0  0  0  0  0  0  0  0  0  0
   -1.0262   22.7390    3.5858 H   0  0  0  0  0  0  0  0  0  0  0  0
   -1.2789   20.0006    2.3870 H   0  0  0  0  0  0  0  0  0  0  0  0
    0.3145   19.0548    0.6838 H   0  0  0  0  0  0  0  0  0  0  0  0
    2.0457   20.4291    0.0549 H   0  0  0  0  0  0  0  0  0  0  0  0
    1.6690   27.7988    4.0918 H   0  0  0  0  0  0  0  0  0  0  0  0
    1.5564   29.5238    5.0554 H   0  0  0  0  0  0  0  0  0  0  0  0
    0.1138   29.7798    6.2921 H   0  0  0  0  0  0  0  0  0  0  0  0
  1  2  1  0
  2  3  1  0
  3  4  1  0
  4  5  1  0
  5  6  1  0
  6  7  1  0
  7  8  1  0
  8  9  1  0
  9 10  1  0
 10 11  1  0
 11 12  1  0
 12 13  1  0
  5 14  1  0
 14 15  1  0
 15 16  1  0
 16  2  1  0
 14  4  1  0
  8  6  1  0
 13  9  1  0
 16 14  1  0
 13 10  1  0
 13 11  1  0
  1 17  1  0
  2 18  1  0
  3 19  1  0
  4 20  1  0
  5 21  1  0
  6 22  1  0
  7 23  1  0
  7 24  1  0
  8 25  1  0
  9 26  1  0
 10 27  1  0
 11 28  1  0
 12 29  1  0
 12 30  1  0
 15 31  1  0
 15 32  1  0
 16 33  1  0
M  END
