
     RDKit          2D

 60 64  0  0  0  0  0  0  0  0999 V2000
   11.4535   23.0640    7.8473 C   0  0  0  0  0  0  0  0  0  0  0  0
   10.0279   23.5054    7.6962 C   0  0  0  0  0  0  0  0  0  0  0  0
    8.6023   23.9469    7.5451 C   0  0  0  0  0  0  0  0  0  0  0  0
    7.1767   24.3883    7.3940 C   0  0  0  0  0  0  0  0  0  0  0  0
    5.7511   24.8295    7.2428 C   0  0  0  0  0  0  0  0  0  0  0  0
    4.3255   25.2709    7.0917 C   0  0  0  0  0  0  0  0  0  0  0  0
    3.9406   23.8834    6.6712 C   0  0  0  0  0  0  0  0  0  0  0  0
    2.5149   24.3247    6.5200 C   0  0  0  0  0  0  0  0  0  0  0  0
    1.0893   24.7661    6.3689 C   0  0  0  0  0  0  0  0  0  0  0  0
   -0.3363   25.2074    6.2178 C   0  0  0  0  0  0  0  0  0  0  0  0
   -0.9629   23.9178    5.7770 C   0  0  0  0  0  0  0  0  0  0  0  0
   -2.4341   23.8580    5.4909 N   0  0  0  0  0  0  0  0  0  0  0  0
   -1.8075   25.1476    5.9318 C   0  0  0  0  0  0  0  0  0  0  0  0
   -2.6523   26.3774    6.0866 C   0  0  0  0  0  0  0  0  0  0  0  0
   -3.4970   27.6072    6.2414 C   0  0  0  0  0  0  0  0  0  0  0  0
   -4.3417   28.8371    6.3962 C   0  0  0  0  0  0  0  0  0  0  0  0
   -5.1865   30.0669    6.5510 C   0  0  0  0  0  0  0  0  0  0  0  0
   -5.5533   28.0575    5.9787 C   0  0  0  0  0  0  0  0  0  0  0  0
    2.8998   25.7122    6.9406 C   0  0  0  0  0  0  0  0  0  0  0  0
    8.2181   22.5606    7.1201 C   0  0  0  0  0  0  0  0  0  0  0  0
    9.5718   22.0042    6.7917 C   0  0  0  0  0  0  0  0  0  0  0  0
    9.7041   20.5919    6.3040 C   0  0  0  0  0  0  0  0  0  0  0  0
    8.3504   21.1483    6.6324 C   0  0  0  0  0  0  0  0  0  0  0  0
   12.8791   22.6226    7.9984 H   0  0  0  0  0  0  0  0  0  0  0  0
   11.0722   21.6819    7.4064 H   0  0  0  0  0  0  0  0  0  0  0  0
   11.8348   24.4461    8.2881 H   0  0  0  0  0  0  0  0  0  0  0  0
   10.0099   22.5532    7.4484 H   0  0  0  0  0  0  0  0  0  0  0  0
   10.4118   24.8912    8.1231 H   0  0  0  0  0  0  0  0  0  0  0  0
    8.9865   25.3331    7.9700 H   0  0  0  0  0  0  0  0  0  0  0  0
    6.7908   22.9994    6.9789 H   0  0  0  0  0  0  0  0  0  0  0  0
    7.3860   25.8205    7.7875 H   0  0  0  0  0  0  0  0  0  0  0  0
    5.6281   23.9847    7.0072 H   0  0  0  0  0  0  0  0  0  0  0  0
    6.1360   26.2170    7.6635 H   0  0  0  0  0  0  0  0  0  0  0  0
    4.7104   26.6584    7.5122 H   0  0  0  0  0  0  0  0  0  0  0  0
    3.5556   22.4960    6.2506 H   0  0  0  0  0  0  0  0  0  0  0  0
    4.7484   23.5250    6.7295 H   0  0  0  0  0  0  0  0  0  0  0  0
    2.1301   22.9373    6.0995 H   0  0  0  0  0  0  0  0  0  0  0  0
    0.7044   23.3786    5.9485 H   0  0  0  0  0  0  0  0  0  0  0  0
    1.2976   26.1970    6.7677 H   0  0  0  0  0  0  0  0  0  0  0  0
   -0.2048   26.6502    6.6061 H   0  0  0  0  0  0  0  0  0  0  0  0
   -0.1182   22.6880    5.6221 H   0  0  0  0  0  0  0  0  0  0  0  0
   -3.6453   23.0788    5.0713 H   0  0  0  0  0  0  0  0  0  0  0  0
   -3.8641   25.5974    5.6705 H   0  0  0  0  0  0  0  0  0  0  0  0
   -1.4405   27.1574    6.5026 H   0  0  0  0  0  0  0  0  0  0  0  0
   -2.5773   28.1035    7.3175 H   0  0  0  0  0  0  0  0  0  0  0  0
   -4.2259   27.0290    5.2632 H   0  0  0  0  0  0  0  0  0  0  0  0
   -3.1302   29.6167    6.8137 H   0  0  0  0  0  0  0  0  0  0  0  0
   -6.0312   31.2967    6.7059 H   0  0  0  0  0  0  0  0  0  0  0  0
   -3.9742   30.8474    6.9648 H   0  0  0  0  0  0  0  0  0  0  0  0
   -5.9578   29.6980    6.3197 H   0  0  0  0  0  0  0  0  0  0  0  0
   -6.7649   27.2779    5.5613 H   0  0  0  0  0  0  0  0  0  0  0  0
   -6.1146   28.7417    5.9419 H   0  0  0  0  0  0  0  0  0  0  0  0
   -4.9637   26.8435    5.9433 H   0  0  0  0  0  0  0  0  0  0  0  0
    3.2848   27.0997    7.3611 H   0  0  0  0  0  0  0  0  0  0  0  0
    1.5318   26.3193    6.8418 H   0  0  0  0  0  0  0  0  0  0  0  0
    6.7264   22.4618    7.2431 H   0  0  0  0  0  0  0  0  0  0  0  0
   10.7933   22.8601    6.9511 H   0  0  0  0  0  0  0  0  0  0  0  0
   11.1913   20.5169    6.1231 H   0  0  0  0  0  0  0  0  0  0  0  0
    9.3199   19.2056    5.8790 H   0  0  0  0  0  0  0  0  0  0  0  0
    7.1289   20.2924    6.4730 H   0  0  0  0  0  0  0  0  0  0  0  0
  1  2  1  0
  2  3  1  0
  3  4  1  0
  4  5  1  0
  5  6  1  0
  6  7  1  0
  7  8  1  0
  8  9  1  0
  9 10  1  0
 10 11  1  0
 11 12  1  0
 12 13  1  0
 13 14  1  0
 14 15  1  0
 15 16  1  0
 16 17  1  0
 16 18  1  0
  8 19  1  0
  3 20  1  0
 20 21  1  0
 21 22  1  0
 22 23  1  0
 19  6  1  0
 23 20  1  0
 13 10  1  0
 23 21  1  0
 13 11  1  0
  1 24  1  0
  1 25  1  0
  1 26  1  0
  2 27  1  0
  2 28  1  0
  3 29  1  0
  4 30  1  0
  4 31  1  0
  5 32  1  0
  5 33  1  0
  6 34  1  0
  7 35  1  0
  7 36  1  0
  8 37  1  0
  9 38  1  0
  9 39  1  0
 10 40  1  0
 11 41  1  0
 12 42  1  0
 14 43  1  0
 14 44  1  0
 15 45  1  0
 15 46  1  0
 16 47  1  0
 17 48  1  0
 17 49  1  0
 17 50  1  0
 18 51  1  0
 18 52  1  0
 18 53  1  0
 19 54  1  0
 19 55  1  0
 20 56  1  0
 21 57  1  0
 22 58  1  0
 22 59  1  0
 23 60  1  0
M  END
