
     RDKit          2D

 27 28  0  0  0  0  0  0  0  0999 V2000
    1.4005   24.7227    6.9864 C   0  0  0  0  0  0  0  0  0  0  0  0
    0.7816   23.5138    7.6232 C   0  0  0  0  0  0  0  0  0  0  0  0
    0.1626   22.3049    8.2599 C   0  0  0  0  0  0  0  0  0  0  0  0
   -0.2052   23.4259    6.4969 C   0  0  0  0  0  0  0  0  0  0  0  0
   -1.1921   23.3379    5.3707 C   0  0  0  0  0  0  0  0  0  0  0  0
   -2.1790   23.2499    4.2444 C   0  0  0  0  0  0  0  0  0  0  0  0
   -1.9073   24.6829    3.8944 C   0  0  0  0  0  0  0  0  0  0  0  0
   -0.9205   24.7709    5.0207 C   0  0  0  0  0  0  0  0  0  0  0  0
   -2.7902   24.9689    2.7160 O   0  0  0  0  0  0  0  0  0  0  0  0
   -1.9004   26.0444    3.2649 C   0  0  0  0  0  0  0  0  0  0  0  0
   -2.2438   27.1679    2.3323 O   0  0  0  0  0  0  0  0  0  0  0  0
    2.0194   25.9316    6.3496 H   0  0  0  0  0  0  0  0  0  0  0  0
    2.0199   24.5289    7.4492 H   0  0  0  0  0  0  0  0  0  0  0  0
    2.1001   24.6855    7.3668 H   0  0  0  0  0  0  0  0  0  0  0  0
    1.7684   23.6017    8.7493 H   0  0  0  0  0  0  0  0  0  0  0  0
   -0.4563   21.0960    8.8967 H   0  0  0  0  0  0  0  0  0  0  0  0
    1.1515   22.3910    9.3845 H   0  0  0  0  0  0  0  0  0  0  0  0
   -0.8943   22.0721    7.2212 H   0  0  0  0  0  0  0  0  0  0  0  0
    0.5298   24.6359    6.0017 H   0  0  0  0  0  0  0  0  0  0  0  0
   -0.9404   22.2157    6.9920 H   0  0  0  0  0  0  0  0  0  0  0  0
   -1.4638   21.9047    5.7206 H   0  0  0  0  0  0  0  0  0  0  0  0
   -2.4506   21.8168    4.5944 H   0  0  0  0  0  0  0  0  0  0  0  0
   -3.1658   23.1619    3.1182 H   0  0  0  0  0  0  0  0  0  0  0  0
   -0.5306   26.2040    4.8106 H   0  0  0  0  0  0  0  0  0  0  0  0
    0.0921   25.0330    6.0958 H   0  0  0  0  0  0  0  0  0  0  0  0
   -0.9195   26.8785    4.0346 H   0  0  0  0  0  0  0  0  0  0  0  0
   -1.5806   28.5039    2.4911 H   0  0  0  0  0  0  0  0  0  0  0  0
  1  2  1  0
  2  3  1  0
  2  4  1  0
  4  5  1  0
  5  6  1  0
  6  7  1  0
  7  8  1  0
  7  9  1  0
  9 10  1  0
 10 11  1  0
  8  5  1  0
 10  7  1  0
  1 12  1  0
  1 13  1  0
  1 14  1  0
  2 15  1  0
  3 16  1  0
  3 17  1  0
  3 18  1  0
  4 19  1  0
  4 20  1  0
  5 21  1  0
  6 22  1  0
  6 23  1  0
  8 24  1  0
  8 25  1  0
 10 26  1  0
 11 27  1  0
M  END
