
     RDKit          2D

 54 62  0  0  0  0  0  0  0  0999 V2000
   -2.5287   24.7774    6.3510 C   0  0  0  0  0  0  0  0  0  0  0  0
   -1.3868   25.4055    5.6086 C   0  0  0  0  0  0  0  0  0  0  0  0
   -0.2447   26.0337    4.8661 C   0  0  0  0  0  0  0  0  0  0  0  0
    0.8973   26.6618    4.1236 O   0  0  0  0  0  0  0  0  0  0  0  0
    1.4254   27.9989    4.5518 C   0  0  0  0  0  0  0  0  0  0  0  0
    0.4141   28.0438    5.6588 C   0  0  0  0  0  0  0  0  0  0  0  0
   -0.5972   28.0886    6.7658 C   0  0  0  0  0  0  0  0  0  0  0  0
   -1.6085   28.1335    7.8727 C   0  0  0  0  0  0  0  0  0  0  0  0
   -2.6197   28.1784    8.9797 C   0  0  0  0  0  0  0  0  0  0  0  0
   -1.6505   29.3095    8.8029 C   0  0  0  0  0  0  0  0  0  0  0  0
   -2.5776   27.0023    8.0495 C   0  0  0  0  0  0  0  0  0  0  0  0
    2.4366   27.9540    3.4449 C   0  0  0  0  0  0  0  0  0  0  0  0
    3.4479   27.9092    2.3380 C   0  0  0  0  0  0  0  0  0  0  0  0
    3.0872   26.5964    1.7084 C   0  0  0  0  0  0  0  0  0  0  0  0
    3.8512   26.1012    0.5165 C   0  0  0  0  0  0  0  0  0  0  0  0
    4.9761   26.9187   -0.0460 C   0  0  0  0  0  0  0  0  0  0  0  0
    4.2120   27.4140    1.1460 C   0  0  0  0  0  0  0  0  0  0  0  0
   -1.3381   24.2249    4.6845 C   0  0  0  0  0  0  0  0  0  0  0  0
   -2.4543   23.4013    5.2553 C   0  0  0  0  0  0  0  0  0  0  0  0
   -2.9810   24.2058    6.4065 C   0  0  0  0  0  0  0  0  0  0  0  0
   -3.2978   22.1612    5.2301 C   0  0  0  0  0  0  0  0  0  0  0  0
   -2.5265   21.6605    4.0450 C   0  0  0  0  0  0  0  0  0  0  0  0
   -1.4367   21.8470    3.0313 C   0  0  0  0  0  0  0  0  0  0  0  0
   -1.6829   22.9006    4.0702 C   0  0  0  0  0  0  0  0  0  0  0  0
   -3.6707   24.1494    7.0936 H   0  0  0  0  0  0  0  0  0  0  0  0
   -2.7015   25.3061    6.9222 H   0  0  0  0  0  0  0  0  0  0  0  0
   -2.6181   23.5279    5.5261 H   0  0  0  0  0  0  0  0  0  0  0  0
   -1.5743   26.5007    6.6162 H   0  0  0  0  0  0  0  0  0  0  0  0
   -0.7306   27.2808    5.5432 H   0  0  0  0  0  0  0  0  0  0  0  0
    0.2412   24.7866    4.1890 H   0  0  0  0  0  0  0  0  0  0  0  0
    1.9534   29.3359    4.9801 H   0  0  0  0  0  0  0  0  0  0  0  0
    0.9555   29.3714    6.0996 H   0  0  0  0  0  0  0  0  0  0  0  0
   -0.4538   26.8204    5.6441 H   0  0  0  0  0  0  0  0  0  0  0  0
   -0.0568   29.4170    7.2057 H   0  0  0  0  0  0  0  0  0  0  0  0
   -1.2568   26.7757    6.4641 H   0  0  0  0  0  0  0  0  0  0  0  0
   -3.6310   28.2231   10.0866 H   0  0  0  0  0  0  0  0  0  0  0  0
   -1.1154   30.6415    9.2379 H   0  0  0  0  0  0  0  0  0  0  0  0
   -3.3416   25.7207    7.8953 H   0  0  0  0  0  0  0  0  0  0  0  0
    2.9767   29.2826    3.8844 H   0  0  0  0  0  0  0  0  0  0  0  0
    1.8966   26.6254    3.0054 H   0  0  0  0  0  0  0  0  0  0  0  0
    4.1599   29.2066    2.5832 H   0  0  0  0  0  0  0  0  0  0  0  0
    1.9623   25.7788    2.2710 H   0  0  0  0  0  0  0  0  0  0  0  0
    3.4905   24.7883   -0.1131 H   0  0  0  0  0  0  0  0  0  0  0  0
    5.4007   26.0326   -1.1795 H   0  0  0  0  0  0  0  0  0  0  0  0
    5.9533   28.0440   -0.2149 H   0  0  0  0  0  0  0  0  0  0  0  0
   -0.2317   24.4804    3.7044 H   0  0  0  0  0  0  0  0  0  0  0  0
   -3.6275   24.8741    7.5835 H   0  0  0  0  0  0  0  0  0  0  0  0
   -4.0521   23.2436    6.8271 H   0  0  0  0  0  0  0  0  0  0  0  0
   -2.3327   25.5267    6.6977 H   0  0  0  0  0  0  0  0  0  0  0  0
   -4.1414   20.9211    5.2049 H   0  0  0  0  0  0  0  0  0  0  0  0
   -4.1662   22.5070    6.4032 H   0  0  0  0  0  0  0  0  0  0  0  0
   -3.1416   20.3332    3.7140 H   0  0  0  0  0  0  0  0  0  0  0  0
   -1.5871   20.5752    2.2503 H   0  0  0  0  0  0  0  0  0  0  0  0
   -0.2947   22.4752    2.2889 H   0  0  0  0  0  0  0  0  0  0  0  0
  1  2  1  0
  2  3  1  0
  3  4  1  0
  4  5  1  0
  5  6  1  0
  6  7  1  0
  7  8  1  0
  8  9  1  0
  9 10  1  0
 10 11  1  0
  5 12  1  0
 12 13  1  0
 13 14  1  0
 14 15  1  0
 15 16  1  0
 16 17  1  0
  2 18  1  0
 18 19  1  0
 19 20  1  0
 19 21  1  0
 21 22  1  0
 22 23  1  0
 23 24  1  0
 10  8  1  0
 17 13  1  0
 24 18  1  0
 11  8  1  0
 17 14  1  0
 24 19  1  0
 11  9  1  0
 17 15  1  0
 24 22  1  0
  1 25  1  0
  1 26  1  0
  1 27  1  0
  2 28  1  0
  3 29  1  0
  3 30  1  0
  5 31  1  0
  6 32  1  0
  6 33  1  0
  7 34  1  0
  7 35  1  0
  9 36  1  0
 10 37  1  0
 11 38  1  0
 12 39  1  0
 12 40  1  0
 13 41  1  0
 14 42  1  0
 15 43  1  0
 16 44  1  0
 16 45  1  0
 18 46  1  0
 20 47  1  0
 20 48  1  0
 20 49  1  0
 21 50  1  0
 21 51  1  0
 22 52  1  0
 23 53  1  0
 23 54  1  0
M  END
