
     RDKit          2D

 35 36  0  0  0  0  0  0  0  0999 V2000
   -3.7543   15.3416    1.8385 C   0  0  0  0  0  0  0  0  0  0  0  0
   -3.2536   16.7077    1.4734 C   0  0  0  0  0  0  0  0  0  0  0  0
   -2.7528   18.0737    1.1084 C   0  0  0  0  0  0  0  0  0  0  0  0
   -2.2521   19.4397    0.7433 C   0  0  0  0  0  0  0  0  0  0  0  0
   -1.7514   20.8057    0.3783 C   0  0  0  0  0  0  0  0  0  0  0  0
   -1.6476   20.0552   -0.9163 C   0  0  0  0  0  0  0  0  0  0  0  0
   -1.1628   20.5487   -2.2473 C   0  0  0  0  0  0  0  0  0  0  0  0
   -0.6621   21.9148   -2.6122 C   0  0  0  0  0  0  0  0  0  0  0  0
   -0.5225   23.1246   -1.7366 C   0  0  0  0  0  0  0  0  0  0  0  0
   -0.3056   24.4375   -1.0443 C   0  0  0  0  0  0  0  0  0  0  0  0
   -0.8491   23.2672   -0.2795 C   0  0  0  0  0  0  0  0  0  0  0  0
   -1.3960   22.2351    0.6616 C   0  0  0  0  0  0  0  0  0  0  0  0
   -3.0762   17.8073   -0.3320 O   0  0  0  0  0  0  0  0  0  0  0  0
   -3.6720   16.4913   -0.7359 C   0  0  0  0  0  0  0  0  0  0  0  0
   -3.9954   16.2249   -2.1762 O   0  0  0  0  0  0  0  0  0  0  0  0
   -4.2550   13.9756    2.2036 H   0  0  0  0  0  0  0  0  0  0  0  0
   -3.2530   15.5322    3.2393 H   0  0  0  0  0  0  0  0  0  0  0  0
   -4.3129   14.9859    0.4926 H   0  0  0  0  0  0  0  0  0  0  0  0
   -3.1329   17.0522    2.9283 H   0  0  0  0  0  0  0  0  0  0  0  0
   -3.4919   16.0427    0.1501 H   0  0  0  0  0  0  0  0  0  0  0  0
   -2.4295   18.3400    2.5487 H   0  0  0  0  0  0  0  0  0  0  0  0
   -2.1687   19.1098    0.0225 H   0  0  0  0  0  0  0  0  0  0  0  0
   -2.4718   19.8974    2.1548 H   0  0  0  0  0  0  0  0  0  0  0  0
   -2.1291   20.7725    1.8296 H   0  0  0  0  0  0  0  0  0  0  0  0
   -1.7872   18.8454   -1.7920 H   0  0  0  0  0  0  0  0  0  0  0  0
   -1.9373   19.4457   -0.4920 H   0  0  0  0  0  0  0  0  0  0  0  0
   -1.1812   19.5434   -3.3603 H   0  0  0  0  0  0  0  0  0  0  0  0
   -0.2459   22.0948   -4.0421 H   0  0  0  0  0  0  0  0  0  0  0  0
   -0.0052   23.8144   -2.9641 H   0  0  0  0  0  0  0  0  0  0  0  0
    0.2269   25.2498   -2.1874 H   0  0  0  0  0  0  0  0  0  0  0  0
   -0.2736   25.4683    0.0450 H   0  0  0  0  0  0  0  0  0  0  0  0
   -0.8717   24.1927    0.9008 H   0  0  0  0  0  0  0  0  0  0  0  0
   -1.8462   21.9103    2.0551 H   0  0  0  0  0  0  0  0  0  0  0  0
   -1.2564   23.4450    1.5374 H   0  0  0  0  0  0  0  0  0  0  0  0
   -4.0072   15.3382    0.1630 H   0  0  0  0  0  0  0  0  0  0  0  0
  1  2  1  0
  2  3  1  0
  3  4  1  0
  4  5  1  0
  5  6  1  0
  6  7  1  0
  7  8  2  0
  8  9  1  0
  9 10  1  0
 10 11  1  0
 11 12  1  0
  3 13  1  0
 13 14  1  0
 14 15  2  0
 12  5  1  0
 11  9  1  0
  1 16  1  0
  1 17  1  0
  1 18  1  0
  2 19  1  0
  2 20  1  0
  3 21  1  0
  4 22  1  0
  4 23  1  0
  5 24  1  0
  6 25  1  0
  6 26  1  0
  7 27  1  0
  8 28  1  0
  9 29  1  0
 10 30  1  0
 10 31  1  0
 11 32  1  0
 12 33  1  0
 12 34  1  0
 14 35  1  0
M  END
