
     RDKit          2D

 94106  0  0  0  0  0  0  0  0999 V2000
   23.7197  -28.3716   -7.9992 C   0  0  0  0  0  0  0  0  0  0  0  0
   24.7253  -29.0934   -8.8463 C   0  0  0  0  0  0  0  0  0  0  0  0
   25.0339  -28.5997  -10.2287 C   0  0  0  0  0  0  0  0  0  0  0  0
   24.9878  -27.7532  -11.4662 C   0  0  0  0  0  0  0  0  0  0  0  0
   24.0733  -26.5658  -11.5288 C   0  0  0  0  0  0  0  0  0  0  0  0
   23.0517  -25.5498  -11.1113 C   0  0  0  0  0  0  0  0  0  0  0  0
   24.1195  -27.4123  -10.2914 C   0  0  0  0  0  0  0  0  0  0  0  0
   23.2513  -27.0715   -9.1166 C   0  0  0  0  0  0  0  0  0  0  0  0
   22.2453  -26.3499   -8.2697 C   0  0  0  0  0  0  0  0  0  0  0  0
   21.5470  -25.1354   -8.8056 C   0  0  0  0  0  0  0  0  0  0  0  0
   21.1502  -24.0392   -9.7495 C   0  0  0  0  0  0  0  0  0  0  0  0
   22.0313  -23.6966  -10.9140 C   0  0  0  0  0  0  0  0  0  0  0  0
   20.7534  -22.9430  -10.6933 C   0  0  0  0  0  0  0  0  0  0  0  0
   19.4753  -22.1894  -10.4727 C   0  0  0  0  0  0  0  0  0  0  0  0
   18.1973  -21.4357  -10.2520 C   0  0  0  0  0  0  0  0  0  0  0  0
   18.6947  -20.7485  -11.4892 C   0  0  0  0  0  0  0  0  0  0  0  0
   19.1920  -20.0614  -12.7263 O   0  0  0  0  0  0  0  0  0  0  0  0
   18.3927  -18.9501  -13.3397 C   0  0  0  0  0  0  0  0  0  0  0  0
   19.0438  -18.3845  -14.5670 N   0  0  0  0  0  0  0  0  0  0  0  0
   18.7018  -17.2998  -15.5448 C   0  0  0  0  0  0  0  0  0  0  0  0
   20.0100  -17.8557  -16.0238 N   0  0  0  0  0  0  0  0  0  0  0  0
   21.1447  -18.8242  -15.8681 C   0  0  0  0  0  0  0  0  0  0  0  0
   21.1412  -17.8502  -17.0088 C   0  0  0  0  0  0  0  0  0  0  0  0
   22.4290  -18.2286  -17.6785 C   0  0  0  0  0  0  0  0  0  0  0  0
   20.6904  -16.7447  -17.9169 C   0  0  0  0  0  0  0  0  0  0  0  0
   17.5670  -16.3312  -15.7004 C   0  0  0  0  0  0  0  0  0  0  0  0
   16.2694  -15.6528  -15.3746 C   0  0  0  0  0  0  0  0  0  0  0  0
   16.1022  -16.5460  -14.1811 C   0  0  0  0  0  0  0  0  0  0  0  0
   15.9953  -17.6966  -12.7375 C   0  0  0  0  0  0  0  0  0  0  0  0
   17.1300  -18.6652  -12.5819 C   0  0  0  0  0  0  0  0  0  0  0  0
   16.9628  -19.5584  -11.3884 C   0  0  0  0  0  0  0  0  0  0  0  0
   17.3998  -17.2244  -14.5071 C   0  0  0  0  0  0  0  0  0  0  0  0
   18.1990  -18.3357  -13.8936 C   0  0  0  0  0  0  0  0  0  0  0  0
   17.3161  -21.7783   -9.0875 C   0  0  0  0  0  0  0  0  0  0  0  0
   17.7129  -22.8745   -8.1437 C   0  0  0  0  0  0  0  0  0  0  0  0
   17.4332  -23.7051   -6.9264 C   0  0  0  0  0  0  0  0  0  0  0  0
   18.7112  -24.4587   -7.1470 C   0  0  0  0  0  0  0  0  0  0  0  0
   18.7719  -25.4561   -6.0283 C   0  0  0  0  0  0  0  0  0  0  0  0
   19.9579  -24.6961   -7.9467 C   0  0  0  0  0  0  0  0  0  0  0  0
   20.9937  -24.5442   -9.0211 O   0  0  0  0  0  0  0  0  0  0  0  0
   18.9909  -23.6281   -8.3643 C   0  0  0  0  0  0  0  0  0  0  0  0
   19.8721  -23.2855   -9.5288 C   0  0  0  0  0  0  0  0  0  0  0  0
   22.5530  -25.8569   -9.6525 C   0  0  0  0  0  0  0  0  0  0  0  0
   22.8607  -25.3639  -11.0354 C   0  0  0  0  0  0  0  0  0  0  0  0
   22.8598  -27.1603   -8.2071 H   0  0  0  0  0  0  0  0  0  0  0  0
   23.4111  -28.8654   -6.6168 H   0  0  0  0  0  0  0  0  0  0  0  0
   25.4224  -30.3090   -8.3111 H   0  0  0  0  0  0  0  0  0  0  0  0
   26.0556  -29.6156  -10.6462 H   0  0  0  0  0  0  0  0  0  0  0  0
   25.8559  -28.0940  -12.6409 H   0  0  0  0  0  0  0  0  0  0  0  0
   24.3819  -26.0720  -12.9113 H   0  0  0  0  0  0  0  0  0  0  0  0
   23.0441  -26.3491   -9.8421 H   0  0  0  0  0  0  0  0  0  0  0  0
   22.9337  -24.6437  -12.3009 H   0  0  0  0  0  0  0  0  0  0  0  0
   22.0502  -24.8454  -10.2448 H   0  0  0  0  0  0  0  0  0  0  0  0
   23.4061  -28.0046   -7.9525 H   0  0  0  0  0  0  0  0  0  0  0  0
   21.9376  -26.8430   -6.8868 H   0  0  0  0  0  0  0  0  0  0  0  0
   20.8391  -25.0886   -7.4839 H   0  0  0  0  0  0  0  0  0  0  0  0
   23.1367  -24.6890  -10.7050 H   0  0  0  0  0  0  0  0  0  0  0  0
   22.5287  -23.0095  -12.1511 H   0  0  0  0  0  0  0  0  0  0  0  0
   19.9087  -21.4568  -11.7078 H   0  0  0  0  0  0  0  0  0  0  0  0
   17.0920  -20.4434  -10.4610 H   0  0  0  0  0  0  0  0  0  0  0  0
   19.9562  -21.5448  -11.6459 H   0  0  0  0  0  0  0  0  0  0  0  0
   17.4004  -20.0546  -11.1840 H   0  0  0  0  0  0  0  0  0  0  0  0
   19.0369  -16.5027  -16.7706 H   0  0  0  0  0  0  0  0  0  0  0  0
   20.7007  -19.5495  -14.6324 H   0  0  0  0  0  0  0  0  0  0  0  0
   22.3969  -19.6408  -15.9925 H   0  0  0  0  0  0  0  0  0  0  0  0
   22.3575  -17.2260  -18.7920 H   0  0  0  0  0  0  0  0  0  0  0  0
   22.8143  -19.3234  -16.7283 H   0  0  0  0  0  0  0  0  0  0  0  0
   23.7167  -18.6070  -18.3482 H   0  0  0  0  0  0  0  0  0  0  0  0
   21.9176  -16.7039  -18.7784 H   0  0  0  0  0  0  0  0  0  0  0  0
   19.3533  -16.5161  -17.2768 H   0  0  0  0  0  0  0  0  0  0  0  0
   20.2396  -15.6392  -18.8251 H   0  0  0  0  0  0  0  0  0  0  0  0
   18.4976  -16.0450  -16.8416 H   0  0  0  0  0  0  0  0  0  0  0  0
   14.9719  -14.9744  -15.0487 H   0  0  0  0  0  0  0  0  0  0  0  0
   16.4367  -14.7597  -16.5680 H   0  0  0  0  0  0  0  0  0  0  0  0
   15.0665  -16.6979  -13.1068 H   0  0  0  0  0  0  0  0  0  0  0  0
   15.6601  -18.4936  -11.5117 H   0  0  0  0  0  0  0  0  0  0  0  0
   14.6870  -17.1406  -12.2586 H   0  0  0  0  0  0  0  0  0  0  0  0
   15.7555  -19.4175  -10.5095 H   0  0  0  0  0  0  0  0  0  0  0  0
   18.0029  -20.5925  -11.0740 H   0  0  0  0  0  0  0  0  0  0  0  0
   19.4993  -18.9983  -14.2403 H   0  0  0  0  0  0  0  0  0  0  0  0
   18.0092  -19.2169  -12.6947 H   0  0  0  0  0  0  0  0  0  0  0  0
   16.0919  -21.5986   -8.2395 H   0  0  0  0  0  0  0  0  0  0  0  0
   16.5168  -20.6670   -9.7009 H   0  0  0  0  0  0  0  0  0  0  0  0
   16.4232  -22.4869   -7.4830 H   0  0  0  0  0  0  0  0  0  0  0  0
   16.9998  -24.4377   -5.6912 H   0  0  0  0  0  0  0  0  0  0  0  0
   16.1552  -22.9514   -6.7057 H   0  0  0  0  0  0  0  0  0  0  0  0
   19.5953  -26.4849   -6.7449 H   0  0  0  0  0  0  0  0  0  0  0  0
   17.9632  -24.6706   -5.0389 H   0  0  0  0  0  0  0  0  0  0  0  0
   18.8325  -26.4536   -4.9096 H   0  0  0  0  0  0  0  0  0  0  0  0
   20.7019  -25.8138   -7.2779 H   0  0  0  0  0  0  0  0  0  0  0  0
   22.2036  -25.4307   -9.0269 H   0  0  0  0  0  0  0  0  0  0  0  0
   23.8911  -26.3282  -11.5436 H   0  0  0  0  0  0  0  0  0  0  0  0
   21.9203  -24.1953  -11.0263 H   0  0  0  0  0  0  0  0  0  0  0  0
   23.0460  -24.7384  -12.3861 H   0  0  0  0  0  0  0  0  0  0  0  0
  1  2  2  0
  2  3  1  0
  3  4  1  0
  4  5  1  0
  5  6  1  0
  5  7  1  0
  7  8  1  0
  8  9  1  0
  9 10  1  0
 10 11  1  0
 11 12  1  0
 12 13  1  0
 13 14  1  0
 14 15  1  0
 15 16  1  0
 16 17  1  0
 17 18  1  0
 18 19  2  0
 19 20  1  0
 20 21  1  0
 21 22  1  0
 22 23  1  0
 23 24  1  0
 23 25  1  0
 20 26  1  0
 26 27  1  0
 27 28  1  0
 28 29  1  0
 29 30  1  0
 30 31  2  0
 28 32  1  0
 32 33  2  0
 15 34  1  0
 34 35  1  0
 35 36  1  0
 36 37  1  0
 37 38  1  0
 37 39  1  0
 39 40  1  0
 39 41  1  0
 41 42  1  0
 10 43  1  0
 43 44  1  0
  7  3  1  0
 43  8  1  0
  7  4  1  0
 43  9  1  0
 13 11  1  0
 42 14  1  0
 42 11  1  0
 42 13  1  0
 30 18  1  0
 41 35  1  0
 23 21  1  0
 32 26  1  0
 41 37  1  0
  1 45  1  0
  1 46  1  0
  2 47  1  0
  3 48  1  0
  4 49  1  0
  5 50  1  0
  6 51  1  0
  6 52  1  0
  6 53  1  0
  8 54  1  0
  9 55  1  0
 10 56  1  0
 12 57  1  0
 12 58  1  0
 14 59  1  0
 15 60  1  0
 16 61  1  0
 16 62  1  0
 20 63  1  0
 22 64  1  0
 22 65  1  0
 24 66  1  0
 24 67  1  0
 24 68  1  0
 25 69  1  0
 25 70  1  0
 25 71  1  0
 26 72  1  0
 27 73  1  0
 27 74  1  0
 28 75  1  0
 29 76  1  0
 29 77  1  0
 31 78  1  0
 31 79  1  0
 33 80  1  0
 33 81  1  0
 34 82  1  0
 34 83  1  0
 35 84  1  0
 36 85  1  0
 36 86  1  0
 38 87  1  0
 38 88  1  0
 38 89  1  0
 39 90  1  0
 40 91  1  0
 44 92  1  0
 44 93  1  0
 44 94  1  0
M  END
