
     RDKit          2D

113120  0  0  0  0  0  0  0  0999 V2000
   20.4164  -16.1954  -10.1022 C   0  0  0  0  0  0  0  0  0  0  0  0
   19.4827  -17.3294  -10.4060 C   0  0  0  0  0  0  0  0  0  0  0  0
   18.6898  -18.1119   -9.4016 C   0  0  0  0  0  0  0  0  0  0  0  0
   17.8951  -19.1462  -10.1425 C   0  0  0  0  0  0  0  0  0  0  0  0
   16.9981  -20.2590  -10.5975 C   0  0  0  0  0  0  0  0  0  0  0  0
   16.6451  -20.8613  -11.9251 C   0  0  0  0  0  0  0  0  0  0  0  0
   15.7297  -21.8327  -11.2410 C   0  0  0  0  0  0  0  0  0  0  0  0
   16.4596  -20.9830  -11.2613 C   0  0  0  0  0  0  0  0  0  0  0  0
   17.5607  -19.8897  -12.6093 C   0  0  0  0  0  0  0  0  0  0  0  0
   18.4762  -18.9182  -13.2934 C   0  0  0  0  0  0  0  0  0  0  0  0
   19.3917  -17.9467  -13.9775 C   0  0  0  0  0  0  0  0  0  0  0  0
   20.3072  -16.9752  -14.6616 C   0  0  0  0  0  0  0  0  0  0  0  0
   21.2227  -16.0037  -15.3458 C   0  0  0  0  0  0  0  0  0  0  0  0
   22.1382  -15.0322  -16.0299 C   0  0  0  0  0  0  0  0  0  0  0  0
   18.1211  -19.5188  -14.6213 C   0  0  0  0  0  0  0  0  0  0  0  0
   17.7661  -20.1193  -15.9492 C   0  0  0  0  0  0  0  0  0  0  0  0
   19.0378  -18.5482  -15.3053 C   0  0  0  0  0  0  0  0  0  0  0  0
   19.9545  -17.5778  -15.9893 C   0  0  0  0  0  0  0  0  0  0  0  0
   18.6832  -19.1491  -16.6331 C   0  0  0  0  0  0  0  0  0  0  0  0
   19.3925  -17.9474  -13.9774 O   0  0  0  0  0  0  0  0  0  0  0  0
   16.0827  -21.2305   -9.9134 C   0  0  0  0  0  0  0  0  0  0  0  0
   15.1133  -22.3729   -9.9847 C   0  0  0  0  0  0  0  0  0  0  0  0
   14.9613  -22.3371   -8.4929 C   0  0  0  0  0  0  0  0  0  0  0  0
   14.0458  -23.3086   -7.8088 C   0  0  0  0  0  0  0  0  0  0  0  0
   13.2823  -24.3160   -8.6165 C   0  0  0  0  0  0  0  0  0  0  0  0
   13.4343  -24.3518  -10.1083 C   0  0  0  0  0  0  0  0  0  0  0  0
   14.3499  -23.3803  -10.7925 C   0  0  0  0  0  0  0  0  0  0  0  0
   15.0894  -22.6734  -11.8894 C   0  0  0  0  0  0  0  0  0  0  0  0
   18.1970  -19.0028  -11.6048 C   0  0  0  0  0  0  0  0  0  0  0  0
   19.1781  -17.8800  -11.7676 C   0  0  0  0  0  0  0  0  0  0  0  0
   19.4800  -17.7366  -13.2300 C   0  0  0  0  0  0  0  0  0  0  0  0
   18.6853  -18.7709  -13.9709 C   0  0  0  0  0  0  0  0  0  0  0  0
   17.7884  -19.8837  -14.4259 C   0  0  0  0  0  0  0  0  0  0  0  0
   16.8094  -21.0187  -14.3670 C   0  0  0  0  0  0  0  0  0  0  0  0
   15.8305  -22.1537  -14.3080 C   0  0  0  0  0  0  0  0  0  0  0  0
   16.1486  -21.9906  -15.7648 C   0  0  0  0  0  0  0  0  0  0  0  0
   15.7171  -22.6753  -17.0278 C   0  0  0  0  0  0  0  0  0  0  0  0
   14.7889  -23.8066  -17.3571 C   0  0  0  0  0  0  0  0  0  0  0  0
   13.9076  -24.7220  -16.5599 O   0  0  0  0  0  0  0  0  0  0  0  0
   13.5896  -24.8851  -15.1031 C   0  0  0  0  0  0  0  0  0  0  0  0
   14.0210  -24.2004  -13.8401 C   0  0  0  0  0  0  0  0  0  0  0  0
   13.9540  -24.0651  -12.3477 C   0  0  0  0  0  0  0  0  0  0  0  0
   13.0581  -25.2617  -13.3969 O   0  0  0  0  0  0  0  0  0  0  0  0
   14.9493  -23.0690  -13.5108 C   0  0  0  0  0  0  0  0  0  0  0  0
   17.8924  -19.5534  -12.9664 C   0  0  0  0  0  0  0  0  0  0  0  0
   21.1446  -15.5042  -11.2167 H   0  0  0  0  0  0  0  0  0  0  0  0
   20.6218  -15.7525   -8.6839 H   0  0  0  0  0  0  0  0  0  0  0  0
   18.0343  -18.7041   -8.1893 H   0  0  0  0  0  0  0  0  0  0  0  0
   19.3475  -17.2014   -8.4073 H   0  0  0  0  0  0  0  0  0  0  0  0
   17.4058  -19.5221   -8.7753 H   0  0  0  0  0  0  0  0  0  0  0  0
   16.5242  -21.2105  -13.3789 H   0  0  0  0  0  0  0  0  0  0  0  0
   17.2877  -20.2863  -13.1526 H   0  0  0  0  0  0  0  0  0  0  0  0
   16.2921  -21.4635  -13.2528 H   0  0  0  0  0  0  0  0  0  0  0  0
   16.9030  -20.8002  -13.6035 H   0  0  0  0  0  0  0  0  0  0  0  0
   18.1247  -19.0703  -11.4867 H   0  0  0  0  0  0  0  0  0  0  0  0
   19.0422  -18.1004  -12.1705 H   0  0  0  0  0  0  0  0  0  0  0  0
   19.3880  -18.1588  -15.4625 H   0  0  0  0  0  0  0  0  0  0  0  0
   19.9581  -17.1293  -12.8546 H   0  0  0  0  0  0  0  0  0  0  0  0
   20.5771  -17.6079  -15.9946 H   0  0  0  0  0  0  0  0  0  0  0  0
   20.4803  -15.8724  -13.6598 H   0  0  0  0  0  0  0  0  0  0  0  0
   21.5681  -15.3950  -14.0191 H   0  0  0  0  0  0  0  0  0  0  0  0
   20.9915  -16.4895  -16.7460 H   0  0  0  0  0  0  0  0  0  0  0  0
   23.0537  -14.0607  -16.7140 H   0  0  0  0  0  0  0  0  0  0  0  0
   21.7811  -15.6309  -17.3581 H   0  0  0  0  0  0  0  0  0  0  0  0
   22.4953  -14.4335  -14.7018 H   0  0  0  0  0  0  0  0  0  0  0  0
   17.2546  -20.4088  -13.7805 H   0  0  0  0  0  0  0  0  0  0  0  0
   17.5254  -20.5969  -17.3506 H   0  0  0  0  0  0  0  0  0  0  0  0
   18.5685  -19.3220  -16.9343 H   0  0  0  0  0  0  0  0  0  0  0  0
   16.8506  -21.0908  -15.2651 H   0  0  0  0  0  0  0  0  0  0  0  0
   20.8210  -16.6877  -16.8300 H   0  0  0  0  0  0  0  0  0  0  0  0
   19.8318  -17.9256  -17.4433 H   0  0  0  0  0  0  0  0  0  0  0  0
   20.6983  -16.5919  -15.1381 H   0  0  0  0  0  0  0  0  0  0  0  0
   18.3285  -19.7499  -17.9610 H   0  0  0  0  0  0  0  0  0  0  0  0
   19.9072  -18.9262  -17.4709 H   0  0  0  0  0  0  0  0  0  0  0  0
   20.0332  -18.7695  -17.1655 H   0  0  0  0  0  0  0  0  0  0  0  0
   20.1759  -16.9210  -13.2141 H   0  0  0  0  0  0  0  0  0  0  0  0
   16.3048  -20.7693   -8.5034 H   0  0  0  0  0  0  0  0  0  0  0  0
   15.1499  -21.9127   -7.0666 H   0  0  0  0  0  0  0  0  0  0  0  0
   15.9372  -21.1981   -8.4997 H   0  0  0  0  0  0  0  0  0  0  0  0
   13.3062  -24.0155   -6.7118 H   0  0  0  0  0  0  0  0  0  0  0  0
   14.5523  -22.5468   -6.6201 H   0  0  0  0  0  0  0  0  0  0  0  0
   12.3541  -25.4473   -8.9458 H   0  0  0  0  0  0  0  0  0  0  0  0
   12.8079  -24.6730   -7.2390 H   0  0  0  0  0  0  0  0  0  0  0  0
   13.1297  -24.9024  -11.4700 H   0  0  0  0  0  0  0  0  0  0  0  0
   12.4533  -25.4707   -9.9195 H   0  0  0  0  0  0  0  0  0  0  0  0
   13.5757  -24.3969  -11.5780 H   0  0  0  0  0  0  0  0  0  0  0  0
   15.8289  -21.9665  -12.9863 H   0  0  0  0  0  0  0  0  0  0  0  0
   14.3616  -23.6531  -12.7614 H   0  0  0  0  0  0  0  0  0  0  0  0
   15.8917  -21.6287  -11.1717 H   0  0  0  0  0  0  0  0  0  0  0  0
   17.2157  -20.1256  -11.4418 H   0  0  0  0  0  0  0  0  0  0  0  0
   20.1522  -16.7395  -11.7484 H   0  0  0  0  0  0  0  0  0  0  0  0
   20.3770  -16.6238  -12.7749 H   0  0  0  0  0  0  0  0  0  0  0  0
   20.2416  -16.9988  -14.2908 H   0  0  0  0  0  0  0  0  0  0  0  0
   19.2747  -18.2662  -15.2546 H   0  0  0  0  0  0  0  0  0  0  0  0
   17.7868  -20.0979  -15.9105 H   0  0  0  0  0  0  0  0  0  0  0  0
   16.8778  -21.1552  -15.8591 H   0  0  0  0  0  0  0  0  0  0  0  0
   16.8609  -20.7449  -12.8930 H   0  0  0  0  0  0  0  0  0  0  0  0
   16.0192  -21.7293  -12.8817 H   0  0  0  0  0  0  0  0  0  0  0  0
   16.8881  -21.2838  -16.8618 H   0  0  0  0  0  0  0  0  0  0  0  0
   17.0711  -20.8623  -15.4102 H   0  0  0  0  0  0  0  0  0  0  0  0
   15.9030  -22.6712  -18.5162 H   0  0  0  0  0  0  0  0  0  0  0  0
   16.6499  -21.6736  -17.6415 H   0  0  0  0  0  0  0  0  0  0  0  0
   14.1441  -24.7049  -18.3707 H   0  0  0  0  0  0  0  0  0  0  0  0
   15.2331  -23.4877  -18.7539 H   0  0  0  0  0  0  0  0  0  0  0  0
   12.6680  -25.8670  -14.4423 H   0  0  0  0  0  0  0  0  0  0  0  0
   12.7753  -25.9357  -15.7982 H   0  0  0  0  0  0  0  0  0  0  0  0
   13.6521  -24.2086  -10.8854 H   0  0  0  0  0  0  0  0  0  0  0  0
   12.9906  -25.2082  -12.4711 H   0  0  0  0  0  0  0  0  0  0  0  0
   14.9338  -22.9551  -12.5881 H   0  0  0  0  0  0  0  0  0  0  0  0
   12.3280  -26.2394  -14.2692 H   0  0  0  0  0  0  0  0  0  0  0  0
   15.5941  -22.1708  -12.4972 H   0  0  0  0  0  0  0  0  0  0  0  0
   14.5051  -23.3880  -12.1140 H   0  0  0  0  0  0  0  0  0  0  0  0
   16.9230  -20.6959  -13.0379 H   0  0  0  0  0  0  0  0  0  0  0  0
  1  2  2  3
  2  3  1  0
  3  4  1  0
  4  5  1  0
  5  6  1  0
  6  7  1  0
  7  8  1  0
  8  9  1  0
  9 10  1  0
 10 11  1  0
 11 12  1  0
 12 13  1  0
 13 14  1  0
 10 15  1  0
 15 16  1  0
 15 17  1  0
 17 18  1  0
 17 19  1  0
 17 20  1  0
  7 21  1  0
 21 22  1  0
 22 23  1  0
 23 24  1  0
 24 25  1  0
 25 26  1  0
 26 27  1  0
 27 28  1  0
  4 29  1  0
 29 30  1  0
 30 31  1  0
 31 32  1  0
 32 33  1  0
 33 34  1  0
 34 35  1  0
 35 36  1  0
 36 37  1  0
 37 38  1  0
 38 39  1  0
 39 40  1  0
 40 41  1  0
 41 42  1  0
 41 43  1  0
 41 44  1  0
 33 45  1  0
 30  2  1  0
 45 32  1  0
  8  5  1  0
 27 22  1  0
 45 29  1  0
 21  5  1  0
 44 35  1  0
 22  7  1  0
  1 46  1  0
  1 47  1  0
  3 48  1  0
  3 49  1  0
  4 50  1  0
  6 51  1  0
  6 52  1  0
  8 53  1  0
  9 54  1  0
  9 55  1  0
 10 56  1  0
 11 57  1  0
 11 58  1  0
 12 59  1  0
 12 60  1  0
 13 61  1  0
 13 62  1  0
 14 63  1  0
 14 64  1  0
 14 65  1  0
 15 66  1  0
 16 67  1  0
 16 68  1  0
 16 69  1  0
 18 70  1  0
 18 71  1  0
 18 72  1  0
 19 73  1  0
 19 74  1  0
 19 75  1  0
 20 76  1  0
 21 77  1  0
 23 78  1  0
 23 79  1  0
 24 80  1  0
 24 81  1  0
 25 82  1  0
 25 83  1  0
 26 84  1  0
 26 85  1  0
 27 86  1  0
 28 87  1  0
 28 88  1  0
 28 89  1  0
 29 90  1  0
 30 91  1  0
 31 92  1  0
 31 93  1  0
 32 94  1  0
 33 95  1  0
 34 96  1  0
 34 97  1  0
 35 98  1  0
 36 99  1  0
 36100  1  0
 37101  1  0
 37102  1  0
 38103  1  0
 38104  1  0
 40105  1  0
 40106  1  0
 42107  1  0
 42108  1  0
 42109  1  0
 43110  1  0
 44111  1  0
 44112  1  0
 45113  1  0
M  END
