
     RDKit          2D

109116  0  0  0  0  0  0  0  0999 V2000
   -2.2044   33.6348    9.5521 C   0  0  0  0  0  0  0  0  0  0  0  0
   -1.3941   32.5485    8.9092 C   0  0  0  0  0  0  0  0  0  0  0  0
   -0.5838   31.4621    8.2662 C   0  0  0  0  0  0  0  0  0  0  0  0
    0.2265   30.3758    7.6233 C   0  0  0  0  0  0  0  0  0  0  0  0
   -0.0736   31.4100    6.5792 C   0  0  0  0  0  0  0  0  0  0  0  0
    0.1270   31.7728    5.1376 C   0  0  0  0  0  0  0  0  0  0  0  0
    0.7519   31.3256    3.8493 C   0  0  0  0  0  0  0  0  0  0  0  0
    0.9525   31.6885    2.4077 C   0  0  0  0  0  0  0  0  0  0  0  0
    1.1532   32.0513    0.9661 C   0  0  0  0  0  0  0  0  0  0  0  0
    1.5621   30.2393    3.2063 C   0  0  0  0  0  0  0  0  0  0  0  0
    2.2811   29.5456    2.0875 C   0  0  0  0  0  0  0  0  0  0  0  0
    2.2484   28.9288    3.4543 C   0  0  0  0  0  0  0  0  0  0  0  0
    2.5485   27.8946    4.4986 C   0  0  0  0  0  0  0  0  0  0  0  0
    3.2347   26.5840    4.7466 O   0  0  0  0  0  0  0  0  0  0  0  0
    2.3478   27.5317    5.9402 C   0  0  0  0  0  0  0  0  0  0  0  0
    2.6479   26.4975    6.9844 C   0  0  0  0  0  0  0  0  0  0  0  0
    2.9480   25.4633    8.0285 C   0  0  0  0  0  0  0  0  0  0  0  0
    3.0846   24.6193    9.2610 C   0  0  0  0  0  0  0  0  0  0  0  0
    3.9037   23.3078    9.0443 C   0  0  0  0  0  0  0  0  0  0  0  0
    4.6652   22.0167    8.9886 C   0  0  0  0  0  0  0  0  0  0  0  0
    5.4266   20.7256    8.9328 C   0  0  0  0  0  0  0  0  0  0  0  0
    6.1881   19.4345    8.8769 C   0  0  0  0  0  0  0  0  0  0  0  0
    6.9496   18.1434    8.8212 C   0  0  0  0  0  0  0  0  0  0  0  0
    7.7111   16.8522    8.7654 C   0  0  0  0  0  0  0  0  0  0  0  0
    8.4726   15.5610    8.7096 N   0  0  0  0  0  0  0  0  0  0  0  0
    4.9470   22.2458    7.5333 C   0  0  0  0  0  0  0  0  0  0  0  0
    4.8103   23.0898    6.3007 C   0  0  0  0  0  0  0  0  0  0  0  0
    4.2918   24.3226    5.6214 C   0  0  0  0  0  0  0  0  0  0  0  0
    3.7732   25.5553    4.9420 C   0  0  0  0  0  0  0  0  0  0  0  0
    2.7447   25.7177    6.0218 C   0  0  0  0  0  0  0  0  0  0  0  0
    2.2262   26.9504    5.3424 C   0  0  0  0  0  0  0  0  0  0  0  0
    3.2547   26.7879    4.2627 C   0  0  0  0  0  0  0  0  0  0  0  0
    4.2832   26.6255    3.1830 C   0  0  0  0  0  0  0  0  0  0  0  0
    5.3117   26.4632    2.1032 C   0  0  0  0  0  0  0  0  0  0  0  0
    3.6669   24.7697    6.9097 C   0  0  0  0  0  0  0  0  0  0  0  0
    4.1855   23.5369    7.5890 C   0  0  0  0  0  0  0  0  0  0  0  0
    1.7229   27.9789    7.2284 N   0  0  0  0  0  0  0  0  0  0  0  0
    0.9127   29.0652    7.8713 C   0  0  0  0  0  0  0  0  0  0  0  0
    0.7120   28.7024    9.3129 C   0  0  0  0  0  0  0  0  0  0  0  0
    0.5113   28.3395   10.7544 C   0  0  0  0  0  0  0  0  0  0  0  0
    0.3106   27.9767   12.1960 O   0  0  0  0  0  0  0  0  0  0  0  0
    0.6126   30.0994    6.8272 C   0  0  0  0  0  0  0  0  0  0  0  0
    0.8133   30.4623    5.3856 N   0  0  0  0  0  0  0  0  0  0  0  0
    1.5950   29.5524    4.4850 O   0  0  0  0  0  0  0  0  0  0  0  0
   -3.0147   34.7211   10.1950 H   0  0  0  0  0  0  0  0  0  0  0  0
   -2.2583   34.3683    8.2447 H   0  0  0  0  0  0  0  0  0  0  0  0
   -2.1505   32.9012   10.8594 H   0  0  0  0  0  0  0  0  0  0  0  0
   -1.4432   33.2847    7.6033 H   0  0  0  0  0  0  0  0  0  0  0  0
   -1.3451   31.8121   10.2151 H   0  0  0  0  0  0  0  0  0  0  0  0
   -0.7352   32.3232    7.0473 H   0  0  0  0  0  0  0  0  0  0  0  0
   -0.6301   30.8659    9.6419 H   0  0  0  0  0  0  0  0  0  0  0  0
   -0.0686   30.1692    9.0795 H   0  0  0  0  0  0  0  0  0  0  0  0
   -0.8843   32.5777    7.0579 H   0  0  0  0  0  0  0  0  0  0  0  0
   -0.2628   32.8976    4.2249 H   0  0  0  0  0  0  0  0  0  0  0  0
   -0.6833   32.8591    5.7805 H   0  0  0  0  0  0  0  0  0  0  0  0
    0.1237   32.6210    3.4281 H   0  0  0  0  0  0  0  0  0  0  0  0
    0.1707   32.9513    2.6167 H   0  0  0  0  0  0  0  0  0  0  0  0
    1.7531   30.4792    2.0245 H   0  0  0  0  0  0  0  0  0  0  0  0
    1.3539   32.4141   -0.4754 H   0  0  0  0  0  0  0  0  0  0  0  0
    1.2116   30.5959    0.6080 H   0  0  0  0  0  0  0  0  0  0  0  0
    1.1197   33.5401    1.1460 H   0  0  0  0  0  0  0  0  0  0  0  0
    1.6373   30.7947    1.8149 H   0  0  0  0  0  0  0  0  0  0  0  0
    2.1305   30.4070    0.8687 H   0  0  0  0  0  0  0  0  0  0  0  0
    3.0858   28.5132    1.3550 H   0  0  0  0  0  0  0  0  0  0  0  0
    2.9919   28.1592    2.4032 H   0  0  0  0  0  0  0  0  0  0  0  0
    3.1733   27.4474    3.2103 H   0  0  0  0  0  0  0  0  0  0  0  0
    4.0236   25.6417    3.8865 H   0  0  0  0  0  0  0  0  0  0  0  0
    3.1467   26.2999    5.6325 H   0  0  0  0  0  0  0  0  0  0  0  0
    3.4536   25.4656    6.2521 H   0  0  0  0  0  0  0  0  0  0  0  0
    1.9346   27.1711    8.1190 H   0  0  0  0  0  0  0  0  0  0  0  0
    2.1989   26.2513    9.0620 H   0  0  0  0  0  0  0  0  0  0  0  0
    2.2744   25.7056    9.9039 H   0  0  0  0  0  0  0  0  0  0  0  0
    2.9533   24.1481   10.6790 H   0  0  0  0  0  0  0  0  0  0  0  0
    3.2128   23.9222   10.2255 H   0  0  0  0  0  0  0  0  0  0  0  0
    4.3833   21.7876   10.4439 H   0  0  0  0  0  0  0  0  0  0  0  0
    4.5624   20.1686   10.0249 H   0  0  0  0  0  0  0  0  0  0  0  0
    6.3773   21.1210    7.8420 H   0  0  0  0  0  0  0  0  0  0  0  0
    5.9083   19.2065   10.3330 H   0  0  0  0  0  0  0  0  0  0  0  0
    6.4680   19.6624    7.4210 H   0  0  0  0  0  0  0  0  0  0  0  0
    7.2318   18.3726    7.3659 H   0  0  0  0  0  0  0  0  0  0  0  0
    6.6675   17.9140   10.2765 H   0  0  0  0  0  0  0  0  0  0  0  0
    7.4569   16.6390   10.2282 H   0  0  0  0  0  0  0  0  0  0  0  0
    7.9654   17.0654    7.3026 H   0  0  0  0  0  0  0  0  0  0  0  0
    9.9460   15.5465    8.9907 H   0  0  0  0  0  0  0  0  0  0  0  0
    7.7607   14.2844    8.3725 H   0  0  0  0  0  0  0  0  0  0  0  0
    5.7586   21.1346    6.9362 H   0  0  0  0  0  0  0  0  0  0  0  0
    5.5481   22.3388    5.2322 H   0  0  0  0  0  0  0  0  0  0  0  0
    4.9166   23.8753    4.3331 H   0  0  0  0  0  0  0  0  0  0  0  0
    4.8966   25.0994    4.0588 H   0  0  0  0  0  0  0  0  0  0  0  0
    1.5987   26.3112    6.7862 H   0  0  0  0  0  0  0  0  0  0  0  0
    2.9990   24.5609    6.9422 H   0  0  0  0  0  0  0  0  0  0  0  0
    1.7076   28.1831    4.6630 H   0  0  0  0  0  0  0  0  0  0  0  0
    1.3537   26.8096    6.5545 H   0  0  0  0  0  0  0  0  0  0  0  0
    2.8654   27.9917    3.4568 H   0  0  0  0  0  0  0  0  0  0  0  0
    5.1951   25.5567    3.7081 H   0  0  0  0  0  0  0  0  0  0  0  0
    3.7303   27.6590    2.2468 H   0  0  0  0  0  0  0  0  0  0  0  0
    6.3401   26.3008    1.0235 H   0  0  0  0  0  0  0  0  0  0  0  0
    4.8785   27.7641    1.4950 H   0  0  0  0  0  0  0  0  0  0  0  0
    5.7448   25.1622    2.7115 H   0  0  0  0  0  0  0  0  0  0  0  0
    2.8736   26.0164    7.1674 H   0  0  0  0  0  0  0  0  0  0  0  0
    1.8316   27.1705    8.4873 H   0  0  0  0  0  0  0  0  0  0  0  0
    1.4995   27.4427    9.1055 H   0  0  0  0  0  0  0  0  0  0  0  0
   -0.1007   29.8368    9.8630 H   0  0  0  0  0  0  0  0  0  0  0  0
   -0.2764   29.5991   10.9618 H   0  0  0  0  0  0  0  0  0  0  0  0
    1.2990   27.0801   10.5471 H   0  0  0  0  0  0  0  0  0  0  0  0
    0.8916   26.7040   12.7370 H   0  0  0  0  0  0  0  0  0  0  0  0
    1.4229   29.0131    6.1842 H   0  0  0  0  0  0  0  0  0  0  0  0
    0.3868   31.6207    4.5334 H   0  0  0  0  0  0  0  0  0  0  0  0
    1.9801   29.5995    3.0360 H   0  0  0  0  0  0  0  0  0  0  0  0
  1  2  1  0
  2  3  1  0
  3  4  1  0
  4  5  1  0
  5  6  1  0
  6  7  1  0
  7  8  1  0
  8  9  1  0
  7 10  1  0
 10 11  1  0
 11 12  1  0
 12 13  1  0
 13 14  1  0
 13 15  1  0
 15 16  1  0
 16 17  1  0
 17 18  1  0
 18 19  1  0
 19 20  1  0
 20 21  1  0
 21 22  1  0
 22 23  1  0
 23 24  1  0
 24 25  1  0
 20 26  1  0
 26 27  1  0
 27 28  1  0
 28 29  1  0
 29 30  1  0
 30 31  1  0
 31 32  1  0
 32 33  1  0
 33 34  1  0
 28 35  1  0
 35 36  1  0
 15 37  1  0
 37 38  1  0
 38 39  1  0
 39 40  1  0
 40 41  1  0
 38 42  1  0
 42 43  1  0
 43 44  1  0
 38  4  1  0
 42  5  1  0
 12 10  1  0
 35 17  1  0
 36 19  1  0
 36 26  1  0
 36 27  1  0
 32 29  1  0
  1 45  1  0
  1 46  1  0
  1 47  1  0
  2 48  1  0
  2 49  1  0
  3 50  1  0
  3 51  1  0
  4 52  1  0
  5 53  1  0
  6 54  1  0
  6 55  1  0
  7 56  1  0
  8 57  1  0
  8 58  1  0
  9 59  1  0
  9 60  1  0
  9 61  1  0
 10 62  1  0
 11 63  1  0
 11 64  1  0
 12 65  1  0
 13 66  1  0
 14 67  1  0
 15 68  1  0
 16 69  1  0
 16 70  1  0
 17 71  1  0
 18 72  1  0
 18 73  1  0
 19 74  1  0
 20 75  1  0
 21 76  1  0
 21 77  1  0
 22 78  1  0
 22 79  1  0
 23 80  1  0
 23 81  1  0
 24 82  1  0
 24 83  1  0
 25 84  1  0
 25 85  1  0
 26 86  1  0
 27 87  1  0
 28 88  1  0
 29 89  1  0
 30 90  1  0
 30 91  1  0
 31 92  1  0
 31 93  1  0
 32 94  1  0
 33 95  1  0
 33 96  1  0
 34 97  1  0
 34 98  1  0
 34 99  1  0
 35100  1  0
 37101  1  0
 39102  1  0
 39103  1  0
 40104  1  0
 40105  1  0
 41106  1  0
 42107  1  0
 43108  1  0
 44109  1  0
M  END
