
     RDKit          2D

110114  0  0  0  0  0  0  0  0999 V2000
    1.0358   29.3592   -1.1682 C   0  0  0  0  0  0  0  0  0  0  0  0
    0.5310   29.5528    0.2309 C   0  0  0  0  0  0  0  0  0  0  0  0
    0.0262   29.7464    1.6301 C   0  0  0  0  0  0  0  0  0  0  0  0
   -0.4786   29.9401    3.0293 C   0  0  0  0  0  0  0  0  0  0  0  0
   -0.9834   30.1338    4.4284 C   0  0  0  0  0  0  0  0  0  0  0  0
   -0.4994   28.7616    4.7930 Se  0  0  0  0  0  2  0  0  0  0  0  0
   -0.5922   28.0574    6.1142 C   0  0  0  0  0  0  0  0  0  0  0  0
   -1.1921   28.5516    7.3972 C   0  0  0  0  0  0  0  0  0  0  0  0
   -1.5765   28.4351    8.8423 O   0  0  0  0  0  0  0  0  0  0  0  0
   -0.7080   27.1794    7.7617 C   0  0  0  0  0  0  0  0  0  0  0  0
   -0.2239   25.8073    8.1262 C   0  0  0  0  0  0  0  0  0  0  0  0
    0.2601   24.4351    8.4908 C   0  0  0  0  0  0  0  0  0  0  0  0
    0.7441   23.0630    8.8554 C   0  0  0  0  0  0  0  0  0  0  0  0
    1.2282   21.6909    9.2200 C   0  0  0  0  0  0  0  0  0  0  0  0
    1.2487   22.8693    7.4561 O   0  0  0  0  0  0  0  0  0  0  0  0
    1.9202   21.5841    7.0722 C   0  0  0  0  0  0  0  0  0  0  0  0
    2.1783   22.1292    5.6989 C   0  0  0  0  0  0  0  0  0  0  0  0
    2.4365   22.6744    4.3254 C   0  0  0  0  0  0  0  0  0  0  0  0
    2.6947   23.2195    2.9521 C   0  0  0  0  0  0  0  0  0  0  0  0
    2.9528   23.7646    1.5787 C   0  0  0  0  0  0  0  0  0  0  0  0
    2.8498   20.8440    5.3150 C   0  0  0  0  0  0  0  0  0  0  0  0
    2.5917   20.2989    6.6883 C   0  0  0  0  0  0  0  0  0  0  0  0
    2.3335   19.7537    8.0617 C   0  0  0  0  0  0  0  0  0  0  0  0
    2.0753   19.2086    9.4351 C   0  0  0  0  0  0  0  0  0  0  0  0
    3.1111   18.5180    7.7173 C   0  0  0  0  0  0  0  0  0  0  0  0
    3.8886   17.2824    7.3730 C   0  0  0  0  0  0  0  0  0  0  0  0
    0.2396   23.2567   10.2546 C   0  0  0  0  0  0  0  0  0  0  0  0
   -0.0690   22.9695   11.6941 C   0  0  0  0  0  0  0  0  0  0  0  0
    0.6286   21.9391   10.8566 C   0  0  0  0  0  0  0  0  0  0  0  0
    0.7956   20.8477   11.8719 C   0  0  0  0  0  0  0  0  0  0  0  0
   -1.8472   29.8719    7.6758 C   0  0  0  0  0  0  0  0  0  0  0  0
   -2.3313   31.2441    7.3112 C   0  0  0  0  0  0  0  0  0  0  0  0
   -2.2384   31.9481    5.9901 N   0  0  0  0  0  0  0  0  0  0  0  0
   -2.5980   33.2428    5.3233 N   0  0  0  0  0  0  0  0  0  0  0  0
   -1.9981   32.7487    4.0403 C   0  0  0  0  0  0  0  0  0  0  0  0
   -1.6385   31.4540    4.7071 C   0  0  0  0  0  0  0  0  0  0  0  0
   -1.3185   29.4691    6.4980 C   0  0  0  0  0  0  0  0  0  0  0  0
   -0.4956   27.5447    6.5306 O   0  0  0  0  0  0  0  0  0  0  0  0
   -1.0898   29.5385    5.6381 C   0  0  0  0  0  0  0  0  0  0  0  0
   -0.1665   28.4874    4.0810 O   0  0  0  0  0  0  0  0  0  0  0  0
   -0.1780   29.3615    2.8621 C   0  0  0  0  0  0  0  0  0  0  0  0
   -0.1894   30.2356    1.6432 C   0  0  0  0  0  0  0  0  0  0  0  0
   -0.2009   31.1098    0.4242 C   0  0  0  0  0  0  0  0  0  0  0  0
    0.7958   29.3209    0.9779 O   0  0  0  0  0  0  0  0  0  0  0  0
    1.5405   29.1656   -2.5675 H   0  0  0  0  0  0  0  0  0  0  0  0
    0.5501   30.7306   -1.5332 H   0  0  0  0  0  0  0  0  0  0  0  0
    1.5215   27.9877   -0.8032 H   0  0  0  0  0  0  0  0  0  0  0  0
    1.0143   28.1803    0.5952 H   0  0  0  0  0  0  0  0  0  0  0  0
    0.1841   30.8376   -0.4612 H   0  0  0  0  0  0  0  0  0  0  0  0
   -0.4579   31.1186    1.2655 H   0  0  0  0  0  0  0  0  0  0  0  0
    0.5681   28.3609    1.8214 H   0  0  0  0  0  0  0  0  0  0  0  0
    0.1134   28.5620    3.0445 H   0  0  0  0  0  0  0  0  0  0  0  0
   -0.9629   31.3121    2.6646 H   0  0  0  0  0  0  0  0  0  0  0  0
    0.1068   26.9420    5.3951 H   0  0  0  0  0  0  0  0  0  0  0  0
   -0.0884   26.6787    6.4225 H   0  0  0  0  0  0  0  0  0  0  0  0
   -1.3413   27.2622    9.7474 H   0  0  0  0  0  0  0  0  0  0  0  0
   -1.1472   27.2056    9.1958 H   0  0  0  0  0  0  0  0  0  0  0  0
   -0.0376   26.3630    6.6969 H   0  0  0  0  0  0  0  0  0  0  0  0
   -0.7287   26.0010    9.5255 H   0  0  0  0  0  0  0  0  0  0  0  0
    0.2807   25.6136    6.7271 H   0  0  0  0  0  0  0  0  0  0  0  0
    0.7640   24.2411    7.0914 H   0  0  0  0  0  0  0  0  0  0  0  0
   -0.2991   24.7950    9.8354 H   0  0  0  0  0  0  0  0  0  0  0  0
    1.6471   20.3525    9.7523 H   0  0  0  0  0  0  0  0  0  0  0  0
    1.8351   21.1709    7.9505 H   0  0  0  0  0  0  0  0  0  0  0  0
    0.8555   21.5467   10.6657 H   0  0  0  0  0  0  0  0  0  0  0  0
    1.6620   21.0389    8.4456 H   0  0  0  0  0  0  0  0  0  0  0  0
    1.5069   23.4144    6.0828 H   0  0  0  0  0  0  0  0  0  0  0  0
    1.7681   23.9608    4.7104 H   0  0  0  0  0  0  0  0  0  0  0  0
    3.1314   21.4639    3.7760 H   0  0  0  0  0  0  0  0  0  0  0  0
    1.9894   24.4900    3.3238 H   0  0  0  0  0  0  0  0  0  0  0  0
    3.4000   21.9489    2.5802 H   0  0  0  0  0  0  0  0  0  0  0  0
    3.2110   24.3097    0.2053 H   0  0  0  0  0  0  0  0  0  0  0  0
    3.6819   22.5050    1.2158 H   0  0  0  0  0  0  0  0  0  0  0  0
    2.2237   25.0243    1.9416 H   0  0  0  0  0  0  0  0  0  0  0  0
    3.5213   19.5588    4.9310 H   0  0  0  0  0  0  0  0  0  0  0  0
    3.1879   21.2284    3.9050 H   0  0  0  0  0  0  0  0  0  0  0  0
    3.2896   19.0897    6.1399 H   0  0  0  0  0  0  0  0  0  0  0  0
    1.5560   20.9893    8.4060 H   0  0  0  0  0  0  0  0  0  0  0  0
    1.8172   18.6635   10.8085 H   0  0  0  0  0  0  0  0  0  0  0  0
    2.9478   17.9941    9.3167 H   0  0  0  0  0  0  0  0  0  0  0  0
    1.1647   20.3652    9.7230 H   0  0  0  0  0  0  0  0  0  0  0  0
    2.9446   17.8238    9.0366 H   0  0  0  0  0  0  0  0  0  0  0  0
    3.4670   18.9111    6.3142 H   0  0  0  0  0  0  0  0  0  0  0  0
    4.6662   16.0467    7.0287 H   0  0  0  0  0  0  0  0  0  0  0  0
    3.4410   16.6437    8.6544 H   0  0  0  0  0  0  0  0  0  0  0  0
    4.3362   17.9211    6.0918 H   0  0  0  0  0  0  0  0  0  0  0  0
   -0.3708   24.6256   10.3151 H   0  0  0  0  0  0  0  0  0  0  0  0
   -0.7405   24.2547   12.0781 H   0  0  0  0  0  0  0  0  0  0  0  0
   -0.2285   22.3847   13.0662 H   0  0  0  0  0  0  0  0  0  0  0  0
    1.2980   21.1435    9.7754 H   0  0  0  0  0  0  0  0  0  0  0  0
    0.9625   19.7562   12.8872 H   0  0  0  0  0  0  0  0  0  0  0  0
    1.4751   19.9940   10.8425 H   0  0  0  0  0  0  0  0  0  0  0  0
    0.1415   21.5619   13.0174 H   0  0  0  0  0  0  0  0  0  0  0  0
   -2.0920   29.4510    9.0945 H   0  0  0  0  0  0  0  0  0  0  0  0
   -2.7157   31.1275    8.7565 H   0  0  0  0  0  0  0  0  0  0  0  0
   -2.9864   32.5643    7.5899 H   0  0  0  0  0  0  0  0  0  0  0  0
   -3.2764   34.5077    5.7590 H   0  0  0  0  0  0  0  0  0  0  0  0
   -1.3983   32.2545    2.7574 H   0  0  0  0  0  0  0  0  0  0  0  0
   -2.3577   34.0434    3.3736 H   0  0  0  0  0  0  0  0  0  0  0  0
   -1.2600   31.5844    3.2615 H   0  0  0  0  0  0  0  0  0  0  0  0
   -1.0731   27.8930    7.9490 H   0  0  0  0  0  0  0  0  0  0  0  0
   -0.2968   26.4139    7.4959 H   0  0  0  0  0  0  0  0  0  0  0  0
   -0.1745   27.6033    5.3791 H   0  0  0  0  0  0  0  0  0  0  0  0
   -0.5478   30.5412    3.7116 H   0  0  0  0  0  0  0  0  0  0  0  0
    0.1905   28.0841    2.1676 H   0  0  0  0  0  0  0  0  0  0  0  0
   -1.1687   31.2501    2.1549 H   0  0  0  0  0  0  0  0  0  0  0  0
   -0.2124   31.9840   -0.7947 H   0  0  0  0  0  0  0  0  0  0  0  0
   -0.8959   32.1869    1.2032 H   0  0  0  0  0  0  0  0  0  0  0  0
    0.4438   30.4176   -0.7399 H   0  0  0  0  0  0  0  0  0  0  0  0
    1.5542   29.1601   -0.3062 H   0  0  0  0  0  0  0  0  0  0  0  0
  1  2  1  0
  2  3  1  0
  3  4  1  0
  4  5  1  0
  5  6  1  0
  6  7  1  0
  7  8  1  0
  8  9  1  0
  8 10  1  0
 10 11  1  0
 11 12  1  0
 12 13  1  0
 13 14  1  0
 13 15  1  0
 15 16  1  0
 16 17  1  0
 17 18  1  0
 18 19  1  0
 19 20  1  0
 17 21  1  0
 21 22  1  0
 22 23  1  0
 23 24  1  0
 23 25  1  0
 25 26  1  0
 13 27  1  0
 27 28  1  0
 28 29  1  0
 29 30  1  0
  8 31  1  0
 31 32  1  0
 32 33  1  0
 33 34  1  0
 34 35  1  0
 35 36  1  0
 31 37  1  0
 37 38  1  0
 37 39  1  0
 39 40  1  0
 40 41  1  0
 41 42  1  0
 42 43  1  0
 42 44  1  0
 36  5  1  0
 39  5  1  0
 22 16  1  0
 29 27  1  0
 36 33  1  0
  1 45  1  0
  1 46  1  0
  1 47  1  0
  2 48  1  0
  2 49  1  0
  3 50  1  0
  3 51  1  0
  4 52  1  0
  4 53  1  0
  7 54  1  0
  7 55  1  0
  9 56  1  0
 10 57  1  0
 10 58  1  0
 11 59  1  0
 11 60  1  0
 12 61  1  0
 12 62  1  0
 14 63  1  0
 14 64  1  0
 14 65  1  0
 16 66  1  0
 17 67  1  0
 18 68  1  0
 18 69  1  0
 19 70  1  0
 19 71  1  0
 20 72  1  0
 20 73  1  0
 20 74  1  0
 21 75  1  0
 21 76  1  0
 22 77  1  0
 23 78  1  0
 24 79  1  0
 24 80  1  0
 24 81  1  0
 25 82  1  0
 25 83  1  0
 26 84  1  0
 26 85  1  0
 26 86  1  0
 27 87  1  0
 28 88  1  0
 28 89  1  0
 29 90  1  0
 30 91  1  0
 30 92  1  0
 30 93  1  0
 31 94  1  0
 32 95  1  0
 32 96  1  0
 34 97  1  0
 35 98  1  0
 35 99  1  0
 36100  1  0
 37101  1  0
 38102  1  0
 39103  1  0
 41104  1  0
 41105  1  0
 42106  1  0
 43107  1  0
 43108  1  0
 43109  1  0
 44110  1  0
M  END
