
     RDKit          2D

 29 32  0  0  0  0  0  0  0  0999 V2000
   20.7867  -19.8977  -17.2658 C   0  0  0  0  0  0  0  0  0  0  0  0
   19.4117  -19.4258  -16.8958 C   0  0  0  0  0  0  0  0  0  0  0  0
   19.4280  -19.9744  -15.4998 C   0  0  0  0  0  0  0  0  0  0  0  0
   19.8713  -20.6606  -14.2418 C   0  0  0  0  0  0  0  0  0  0  0  0
   18.5599  -20.3240  -13.5961 C   0  0  0  0  0  0  0  0  0  0  0  0
   17.2485  -19.9875  -12.9505 C   0  0  0  0  0  0  0  0  0  0  0  0
   15.9370  -19.6510  -12.3048 O   0  0  0  0  0  0  0  0  0  0  0  0
   18.1166  -19.6379  -14.8542 C   0  0  0  0  0  0  0  0  0  0  0  0
   17.2898  -18.8813  -15.8512 C   0  0  0  0  0  0  0  0  0  0  0  0
   16.5835  -18.1402  -16.9475 C   0  0  0  0  0  0  0  0  0  0  0  0
   17.4976  -18.0886  -18.1356 N   0  0  0  0  0  0  0  0  0  0  0  0
   19.1079  -18.7786  -18.2145 C   0  0  0  0  0  0  0  0  0  0  0  0
   18.0902  -18.7503  -17.1130 N   0  0  0  0  0  0  0  0  0  0  0  0
   22.1616  -20.3695  -17.6358 H   0  0  0  0  0  0  0  0  0  0  0  0
   20.7434  -19.0526  -18.5044 H   0  0  0  0  0  0  0  0  0  0  0  0
   20.9248  -20.4857  -16.4888 H   0  0  0  0  0  0  0  0  0  0  0  0
   20.3353  -20.3107  -15.6795 H   0  0  0  0  0  0  0  0  0  0  0  0
   20.3147  -21.3467  -12.9838 H   0  0  0  0  0  0  0  0  0  0  0  0
   21.1828  -20.9971  -14.8875 H   0  0  0  0  0  0  0  0  0  0  0  0
   19.0032  -21.0102  -12.3381 H   0  0  0  0  0  0  0  0  0  0  0  0
   17.5809  -20.8941  -11.8027 H   0  0  0  0  0  0  0  0  0  0  0  0
   16.9592  -19.4320  -13.5768 H   0  0  0  0  0  0  0  0  0  0  0  0
   15.5685  -20.2691  -10.9888 H   0  0  0  0  0  0  0  0  0  0  0  0
   17.3518  -19.4534  -14.4472 H   0  0  0  0  0  0  0  0  0  0  0  0
   15.9178  -18.4201  -15.4574 H   0  0  0  0  0  0  0  0  0  0  0  0
   15.3807  -17.9408  -16.0737 H   0  0  0  0  0  0  0  0  0  0  0  0
   15.6451  -17.3765  -17.8342 H   0  0  0  0  0  0  0  0  0  0  0  0
   17.1938  -17.4414  -19.4543 H   0  0  0  0  0  0  0  0  0  0  0  0
   19.5202  -18.4213  -19.6117 H   0  0  0  0  0  0  0  0  0  0  0  0
  1  2  1  0
  2  3  1  0
  3  4  1  0
  4  5  1  0
  5  6  1  0
  6  7  1  0
  5  8  1  0
  8  9  1  0
  9 10  1  0
 10 11  1  0
 11 12  1  0
 12 13  1  0
 12  2  1  0
 13  2  1  0
  8  3  1  0
 13  9  1  0
  1 14  1  0
  1 15  1  0
  1 16  1  0
  3 17  1  0
  4 18  1  0
  4 19  1  0
  5 20  1  0
  6 21  1  0
  6 22  1  0
  7 23  1  0
  8 24  1  0
  9 25  1  0
 10 26  1  0
 10 27  1  0
 11 28  1  0
 12 29  1  0
M  END
