
     RDKit          2D

107116  0  0  0  0  0  0  0  0999 V2000
    0.6313   29.3961    3.9481 C   0  0  0  0  0  0  0  0  0  0  0  0
    1.0218   27.9864    4.2802 C   0  0  0  0  0  0  0  0  0  0  0  0
   -0.0212   27.0039    4.7238 C   0  0  0  0  0  0  0  0  0  0  0  0
   -0.8159   28.2564    4.5009 C   0  0  0  0  0  0  0  0  0  0  0  0
   -2.2896   28.4729    4.6778 C   0  0  0  0  0  0  0  0  0  0  0  0
   -3.3326   27.4904    5.1214 C   0  0  0  0  0  0  0  0  0  0  0  0
   -3.1595   26.0487    5.4976 C   0  0  0  0  0  0  0  0  0  0  0  0
   -1.9007   25.2334    5.5231 C   0  0  0  0  0  0  0  0  0  0  0  0
   -2.9437   24.2509    5.9666 C   0  0  0  0  0  0  0  0  0  0  0  0
   -3.4265   22.9056    6.4215 C   0  0  0  0  0  0  0  0  0  0  0  0
   -3.2534   21.4638    6.7977 C   0  0  0  0  0  0  0  0  0  0  0  0
   -2.4588   20.2113    7.0206 C   0  0  0  0  0  0  0  0  0  0  0  0
   -1.8092   18.8858    7.2874 C   0  0  0  0  0  0  0  0  0  0  0  0
   -0.4768   19.4629    6.9107 C   0  0  0  0  0  0  0  0  0  0  0  0
    0.9246   18.9338    6.8331 I   0  0  0  0  0  0  0  0  0  0  0  0
    1.6705   19.6046    6.5248 C   0  0  0  0  0  0  0  0  0  0  0  0
    2.7135   20.5871    6.0812 C   0  0  0  0  0  0  0  0  0  0  0  0
    3.1963   21.9325    5.6263 Al  0  0  0  0  0  3  0  0  0  0  0  0
    3.0232   23.3741    5.2501 C   0  0  0  0  0  0  0  0  0  0  0  0
    3.8976   24.5038    4.7925 C   0  0  0  0  0  0  0  0  0  0  0  0
    5.0975   23.6070    4.8715 C   0  0  0  0  0  0  0  0  0  0  0  0
    5.9718   24.7366    4.4139 C   0  0  0  0  0  0  0  0  0  0  0  0
    4.7720   25.6335    4.3349 C   0  0  0  0  0  0  0  0  0  0  0  0
    3.5722   26.5302    4.2560 C   0  0  0  0  0  0  0  0  0  0  0  0
    2.6976   25.4003    4.7127 C   0  0  0  0  0  0  0  0  0  0  0  0
    1.4979   26.2971    4.6337 C   0  0  0  0  0  0  0  0  0  0  0  0
    2.3724   27.4269    4.1771 C   0  0  0  0  0  0  0  0  0  0  0  0
    1.7706   28.7685    3.8803 C   0  0  0  0  0  0  0  0  0  0  0  0
    3.2470   28.5568    3.7203 C   0  0  0  0  0  0  0  0  0  0  0  0
    4.4467   27.6601    3.7993 C   0  0  0  0  0  0  0  0  0  0  0  0
    4.6767   26.2270    4.1780 C   0  0  0  0  0  0  0  0  0  0  0  0
    5.8321   27.0863    3.7573 C   0  0  0  0  0  0  0  0  0  0  0  0
    6.9873   27.9456    3.3366 C   0  0  0  0  0  0  0  0  0  0  0  0
    7.2173   26.5125    3.7154 C   0  0  0  0  0  0  0  0  0  0  0  0
    8.7017   26.4259    3.5181 C   0  0  0  0  0  0  0  0  0  0  0  0
    6.9318   25.1095    4.1627 C   0  0  0  0  0  0  0  0  0  0  0  0
    6.6462   23.7064    4.6100 C   0  0  0  0  0  0  0  0  0  0  0  0
    6.3607   22.3034    5.0572 O   0  0  0  0  0  0  0  0  0  0  0  0
    2.2285   24.6268    5.0272 C   0  0  0  0  0  0  0  0  0  0  0  0
    0.9697   25.4420    5.0017 C   0  0  0  0  0  0  0  0  0  0  0  0
    0.5792   26.8516    4.6696 O   0  0  0  0  0  0  0  0  0  0  0  0
   -0.5040   25.6586    5.1787 C   0  0  0  0  0  0  0  0  0  0  0  0
   -1.1264   20.7885    6.6440 C   0  0  0  0  0  0  0  0  0  0  0  0
   -1.7761   22.1139    6.3773 C   0  0  0  0  0  0  0  0  0  0  0  0
   -2.4255   23.4394    6.1105 C   0  0  0  0  0  0  0  0  0  0  0  0
    1.5381   30.5006    3.4923 H   0  0  0  0  0  0  0  0  0  0  0  0
   -0.7457   29.9884    4.0041 H   0  0  0  0  0  0  0  0  0  0  0  0
    2.4951   28.0827    4.0157 H   0  0  0  0  0  0  0  0  0  0  0  0
    1.1328   26.0492    4.8053 H   0  0  0  0  0  0  0  0  0  0  0  0
   -0.9889   29.6982    4.1247 H   0  0  0  0  0  0  0  0  0  0  0  0
    0.3101   29.1486    4.0693 H   0  0  0  0  0  0  0  0  0  0  0  0
   -3.4436   29.4277    4.5964 H   0  0  0  0  0  0  0  0  0  0  0  0
   -1.9812   29.8727    4.2358 H   0  0  0  0  0  0  0  0  0  0  0  0
   -4.7793   27.2370    5.4257 H   0  0  0  0  0  0  0  0  0  0  0  0
   -4.2738   28.6456    4.9494 H   0  0  0  0  0  0  0  0  0  0  0  0
   -3.6423   24.7033    5.9525 H   0  0  0  0  0  0  0  0  0  0  0  0
   -4.6416   26.0894    5.7251 H   0  0  0  0  0  0  0  0  0  0  0  0
   -3.3829   25.3030    5.7426 H   0  0  0  0  0  0  0  0  0  0  0  0
   -4.4212   24.4282    6.1552 H   0  0  0  0  0  0  0  0  0  0  0  0
   -3.9891   25.3186    5.8360 H   0  0  0  0  0  0  0  0  0  0  0  0
   -4.8090   22.4428    6.7742 H   0  0  0  0  0  0  0  0  0  0  0  0
   -4.6634   23.7532    6.3834 H   0  0  0  0  0  0  0  0  0  0  0  0
   -4.2672   20.4527    7.2446 H   0  0  0  0  0  0  0  0  0  0  0  0
   -4.7222   21.7194    6.9629 H   0  0  0  0  0  0  0  0  0  0  0  0
   -3.9086   20.5726    7.1531 H   0  0  0  0  0  0  0  0  0  0  0  0
   -1.1596   17.5603    7.5541 H   0  0  0  0  0  0  0  0  0  0  0  0
   -3.1416   18.3087    7.6639 H   0  0  0  0  0  0  0  0  0  0  0  0
    2.9503   18.8223    6.5376 H   0  0  0  0  0  0  0  0  0  0  0  0
    1.6222   18.1631    6.9366 H   0  0  0  0  0  0  0  0  0  0  0  0
    4.1944   20.5861    5.8427 H   0  0  0  0  0  0  0  0  0  0  0  0
    3.4736   19.3153    6.3151 H   0  0  0  0  0  0  0  0  0  0  0  0
    4.6396   21.5433    5.5026 H   0  0  0  0  0  0  0  0  0  0  0  0
    4.4002   22.7819    5.1941 H   0  0  0  0  0  0  0  0  0  0  0  0
    2.6001   25.2562    4.7700 H   0  0  0  0  0  0  0  0  0  0  0  0
    6.0499   22.4635    5.0588 H   0  0  0  0  0  0  0  0  0  0  0  0
    4.5393   22.2940    5.3346 H   0  0  0  0  0  0  0  0  0  0  0  0
    7.3072   25.3128    4.0469 H   0  0  0  0  0  0  0  0  0  0  0  0
    6.9244   23.5932    4.6012 H   0  0  0  0  0  0  0  0  0  0  0  0
    5.9108   26.5124    3.9101 H   0  0  0  0  0  0  0  0  0  0  0  0
    2.5659   23.9700    5.1448 H   0  0  0  0  0  0  0  0  0  0  0  0
    0.8492   27.6194    4.3496 H   0  0  0  0  0  0  0  0  0  0  0  0
    0.3590   25.4178    5.0578 H   0  0  0  0  0  0  0  0  0  0  0  0
    0.2966   28.6538    4.1341 H   0  0  0  0  0  0  0  0  0  0  0  0
    1.8506   30.2045    3.4543 H   0  0  0  0  0  0  0  0  0  0  0  0
    3.7811   29.8803    3.2588 H   0  0  0  0  0  0  0  0  0  0  0  0
    5.2786   24.8854    4.4748 H   0  0  0  0  0  0  0  0  0  0  0  0
    6.2695   29.2358    3.0721 H   0  0  0  0  0  0  0  0  0  0  0  0
    8.3228   28.5222    2.9704 H   0  0  0  0  0  0  0  0  0  0  0  0
   10.1862   26.3394    3.3208 H   0  0  0  0  0  0  0  0  0  0  0  0
    8.8548   24.9865    3.9112 H   0  0  0  0  0  0  0  0  0  0  0  0
    8.9105   27.8443    3.0769 H   0  0  0  0  0  0  0  0  0  0  0  0
    8.3436   24.6066    4.0997 H   0  0  0  0  0  0  0  0  0  0  0  0
    5.4688   24.9187    4.4335 H   0  0  0  0  0  0  0  0  0  0  0  0
    8.1032   23.3713    4.4888 H   0  0  0  0  0  0  0  0  0  0  0  0
    5.1836   23.5165    4.8833 H   0  0  0  0  0  0  0  0  0  0  0  0
    7.4796   21.3116    5.1757 H   0  0  0  0  0  0  0  0  0  0  0  0
    2.1363   26.0721    4.6370 H   0  0  0  0  0  0  0  0  0  0  0  0
    3.5720   25.1807    4.6553 H   0  0  0  0  0  0  0  0  0  0  0  0
    1.7615   26.6298    4.5412 H   0  0  0  0  0  0  0  0  0  0  0  0
    1.9304   27.3888    4.3012 H   0  0  0  0  0  0  0  0  0  0  0  0
    0.3793   26.7814    4.7216 H   0  0  0  0  0  0  0  0  0  0  0  0
    0.2059   21.3655    6.2674 H   0  0  0  0  0  0  0  0  0  0  0  0
   -0.4441   22.6903    5.9980 H   0  0  0  0  0  0  0  0  0  0  0  0
   -3.2256   21.8754    6.6807 H   0  0  0  0  0  0  0  0  0  0  0  0
   -2.7337   24.8647    5.7590 H   0  0  0  0  0  0  0  0  0  0  0  0
   -1.0943   24.0147    5.7275 H   0  0  0  0  0  0  0  0  0  0  0  0
   -3.8744   23.2019    6.4176 H   0  0  0  0  0  0  0  0  0  0  0  0
  1  2  2  3
  2  3  1  0
  3  4  1  0
  4  5  1  0
  5  6  1  0
  6  7  1  0
  7  8  1  0
  8  9  1  0
  9 10  1  0
 10 11  1  0
 11 12  1  0
 12 13  1  0
 13 14  1  0
 14 15  1  0
 14 16  1  0
 16 17  1  0
 17 18  1  0
 18 19  1  0
 19 20  1  0
 20 21  1  0
 21 22  1  0
 22 23  1  0
 23 24  1  0
 24 25  1  0
 25 26  1  0
 26 27  1  0
 27 28  1  0
 28 29  1  0
 29 30  1  0
 30 31  1  0
 31 32  1  0
 32 33  1  0
 33 34  1  0
 34 35  1  0
 34 36  1  0
 36 37  1  0
 37 38  1  0
 19 39  1  0
 39 40  1  0
 40 41  1  0
 40 42  1  0
 14 43  1  0
 43 44  1  0
 44 45  1  0
 42  3  1  0
 42  8  1  0
 43 12  1  0
 23 20  1  0
 27 24  1  0
 32 30  1  0
 30 24  1  0
 34 32  1  0
 31 25  1  0
 29 27  1  0
  1 46  1  0
  1 47  1  0
  2 48  1  0
  3 49  1  0
  4 50  1  0
  4 51  1  0
  5 52  1  0
  5 53  1  0
  6 54  1  0
  6 55  1  0
  7 56  1  0
  7 57  1  0
  8 58  1  0
  9 59  1  0
  9 60  1  0
 10 61  1  0
 10 62  1  0
 11 63  1  0
 11 64  1  0
 12 65  1  0
 13 66  1  0
 13 67  1  0
 16 68  1  0
 16 69  1  0
 17 70  1  0
 17 71  1  0
 18 72  1  0
 19 73  1  0
 20 74  1  0
 21 75  1  0
 21 76  1  0
 22 77  1  0
 22 78  1  0
 23 79  1  0
 25 80  1  0
 26 81  1  0
 26 82  1  0
 28 83  1  0
 28 84  1  0
 29 85  1  0
 31 86  1  0
 33 87  1  0
 33 88  1  0
 35 89  1  0
 35 90  1  0
 35 91  1  0
 36 92  1  0
 36 93  1  0
 37 94  1  0
 37 95  1  0
 38 96  1  0
 39 97  1  0
 39 98  1  0
 40 99  1  0
 41100  1  0
 42101  1  0
 43102  1  0
 44103  1  0
 44104  1  0
 45105  1  0
 45106  1  0
 45107  1  0
M  END
