
     RDKit          2D

 76 79  0  0  0  0  0  0  0  0999 V2000
   -1.5684   26.8939    8.7109 N   0  0  0  0  0  0  0  0  0  0  0  0
   -2.0259   27.4767    7.4066 C   0  0  0  0  0  0  0  0  0  0  0  0
   -1.0374   27.7163    6.3043 N   0  0  0  0  0  0  0  0  0  0  0  0
   -1.4949   28.2991    5.0000 C   0  0  0  0  0  0  0  0  0  0  0  0
   -1.9525   28.8819    3.6958 C   0  0  0  0  0  0  0  0  0  0  0  0
   -2.4101   29.4647    2.3916 C   0  0  0  0  0  0  0  0  0  0  0  0
   -2.8677   30.0475    1.0874 C   0  0  0  0  0  0  0  0  0  0  0  0
   -1.8791   30.2871   -0.0150 O   0  0  0  0  0  0  0  0  0  0  0  0
   -0.5450   28.8319    3.1797 C   0  0  0  0  0  0  0  0  0  0  0  0
    0.8626   28.7820    2.6635 C   0  0  0  0  0  0  0  0  0  0  0  0
    1.7751   29.9564    2.8589 C   0  0  0  0  0  0  0  0  0  0  0  0
    3.1826   29.9064    2.3427 C   0  0  0  0  0  0  0  0  0  0  0  0
    4.5901   29.8565    1.8264 C   0  0  0  0  0  0  0  0  0  0  0  0
    5.9976   29.8065    1.3102 C   0  0  0  0  0  0  0  0  0  0  0  0
    6.4569   29.2328    2.6179 C   0  0  0  0  0  0  0  0  0  0  0  0
    7.8643   29.1829    2.1016 C   0  0  0  0  0  0  0  0  0  0  0  0
    8.3236   28.6092    3.4093 C   0  0  0  0  0  0  0  0  0  0  0  0
    8.7829   28.0356    4.7170 C   0  0  0  0  0  0  0  0  0  0  0  0
    9.2421   27.4620    6.0246 C   0  0  0  0  0  0  0  0  0  0  0  0
    9.7014   26.8884    7.3323 C   0  0  0  0  0  0  0  0  0  0  0  0
   10.1607   26.3147    8.6400 C   0  0  0  0  0  0  0  0  0  0  0  0
   10.6200   25.7411    9.9477 C   0  0  0  0  0  0  0  0  0  0  0  0
   11.5328   25.1839   10.9995 C   0  0  0  0  0  0  0  0  0  0  0  0
   12.0853   25.5893    9.6652 C   0  0  0  0  0  0  0  0  0  0  0  0
    7.4050   29.7565    0.7939 C   0  0  0  0  0  0  0  0  0  0  0  0
   -3.4721   27.8199    7.2048 N   0  0  0  0  0  0  0  0  0  0  0  0
   -4.4607   27.5803    8.3071 C   0  0  0  0  0  0  0  0  0  0  0  0
   -3.5499   27.0122    9.3549 C   0  0  0  0  0  0  0  0  0  0  0  0
   -5.0139   27.1723    9.6405 C   0  0  0  0  0  0  0  0  0  0  0  0
   -5.5669   26.7643   10.9737 C   0  0  0  0  0  0  0  0  0  0  0  0
   -6.4777   27.3324    9.9260 C   0  0  0  0  0  0  0  0  0  0  0  0
   -0.1222   26.5507    8.9126 H   0  0  0  0  0  0  0  0  0  0  0  0
    0.4089   27.3731    6.5060 H   0  0  0  0  0  0  0  0  0  0  0  0
   -0.6374   28.2260    4.7907 H   0  0  0  0  0  0  0  0  0  0  0  0
   -2.9019   28.3522    5.5174 H   0  0  0  0  0  0  0  0  0  0  0  0
   -3.3601   28.9318    4.2119 H   0  0  0  0  0  0  0  0  0  0  0  0
   -3.8166   29.5206    2.9101 H   0  0  0  0  0  0  0  0  0  0  0  0
   -1.6188   29.4738    1.9939 H   0  0  0  0  0  0  0  0  0  0  0  0
   -4.3139   30.3906    0.8855 H   0  0  0  0  0  0  0  0  0  0  0  0
   -0.1747   28.4909    3.9085 H   0  0  0  0  0  0  0  0  0  0  0  0
   -0.7126   29.1658    2.3766 H   0  0  0  0  0  0  0  0  0  0  0  0
    1.3574   27.5578    1.9520 H   0  0  0  0  0  0  0  0  0  0  0  0
    1.2803   31.1806    3.5704 H   0  0  0  0  0  0  0  0  0  0  0  0
    2.8123   30.2476    1.6140 H   0  0  0  0  0  0  0  0  0  0  0  0
    3.0150   30.2404    1.5396 H   0  0  0  0  0  0  0  0  0  0  0  0
    4.1307   30.4291    0.5184 H   0  0  0  0  0  0  0  0  0  0  0  0
    4.8745   29.2941    3.1876 H   0  0  0  0  0  0  0  0  0  0  0  0
    5.5383   30.3801    0.0025 H   0  0  0  0  0  0  0  0  0  0  0  0
    6.7412   28.6696    3.9787 H   0  0  0  0  0  0  0  0  0  0  0  0
    5.1159   29.2125    3.2897 H   0  0  0  0  0  0  0  0  0  0  0  0
    9.2718   29.1329    1.5854 H   0  0  0  0  0  0  0  0  0  0  0  0
    9.7305   28.5557    2.8917 H   0  0  0  0  0  0  0  0  0  0  0  0
    6.9833   28.5924    4.0824 H   0  0  0  0  0  0  0  0  0  0  0  0
   10.1200   27.7262    4.1116 H   0  0  0  0  0  0  0  0  0  0  0  0
    7.4457   28.3451    5.3223 H   0  0  0  0  0  0  0  0  0  0  0  0
   10.6489   27.4078    5.5068 H   0  0  0  0  0  0  0  0  0  0  0  0
    7.8354   27.5161    6.5425 H   0  0  0  0  0  0  0  0  0  0  0  0
   11.1088   26.8378    6.8159 H   0  0  0  0  0  0  0  0  0  0  0  0
    8.2941   26.9390    7.8488 H   0  0  0  0  0  0  0  0  0  0  0  0
    8.7538   26.3678    9.1575 H   0  0  0  0  0  0  0  0  0  0  0  0
   11.5012   26.3319    7.9670 H   0  0  0  0  0  0  0  0  0  0  0  0
    9.3142   25.6937   10.6843 H   0  0  0  0  0  0  0  0  0  0  0  0
   10.5440   24.9431   12.1014 H   0  0  0  0  0  0  0  0  0  0  0  0
   12.7889   24.7104   11.6686 H   0  0  0  0  0  0  0  0  0  0  0  0
   13.5334   25.2565    9.8710 H   0  0  0  0  0  0  0  0  0  0  0  0
   12.3149   26.0763    8.2652 H   0  0  0  0  0  0  0  0  0  0  0  0
    6.9458   30.3301   -0.5138 H   0  0  0  0  0  0  0  0  0  0  0  0
    8.8125   29.7065    0.2777 H   0  0  0  0  0  0  0  0  0  0  0  0
   -3.9298   28.4027    5.9006 H   0  0  0  0  0  0  0  0  0  0  0  0
   -5.7149   28.0652    7.6423 H   0  0  0  0  0  0  0  0  0  0  0  0
   -2.1157   26.9118    8.9273 H   0  0  0  0  0  0  0  0  0  0  0  0
   -3.0924   26.4294   10.6591 H   0  0  0  0  0  0  0  0  0  0  0  0
   -4.3128   26.2794   11.6386 H   0  0  0  0  0  0  0  0  0  0  0  0
   -6.5555   26.5247   12.0762 H   0  0  0  0  0  0  0  0  0  0  0  0
   -7.7826   27.2901   10.6645 H   0  0  0  0  0  0  0  0  0  0  0  0
   -6.9352   27.9152    8.6218 H   0  0  0  0  0  0  0  0  0  0  0  0
  1  2  2  3
  2  3  1  0
  3  4  1  0
  4  5  1  0
  5  6  1  0
  6  7  1  0
  7  8  2  0
  5  9  1  0
  9 10  1  0
 10 11  2  3
 11 12  1  0
 12 13  1  0
 13 14  1  0
 14 15  1  0
 15 16  1  0
 16 17  1  0
 17 18  1  0
 18 19  1  0
 19 20  1  0
 20 21  1  0
 21 22  1  0
 22 23  1  0
 23 24  1  0
 16 25  1  0
  2 26  1  0
 26 27  1  0
 27 28  1  0
 28 29  1  0
 29 30  1  0
 30 31  1  0
 25 14  1  0
 29 27  1  0
 24 22  1  0
 31 29  1  0
  1 32  1  0
  3 33  1  0
  4 34  1  0
  4 35  1  0
  5 36  1  1
  6 37  1  0
  6 38  1  0
  7 39  1  0
  9 40  1  0
  9 41  1  0
 10 42  1  0
 11 43  1  0
 12 44  1  0
 12 45  1  0
 13 46  1  0
 13 47  1  0
 14 48  1  1
 15 49  1  0
 15 50  1  0
 16 51  1  6
 17 52  1  0
 17 53  1  0
 18 54  1  0
 18 55  1  0
 19 56  1  0
 19 57  1  0
 20 58  1  0
 20 59  1  0
 21 60  1  0
 21 61  1  0
 22 62  1  0
 23 63  1  0
 23 64  1  0
 24 65  1  0
 24 66  1  0
 25 67  1  0
 25 68  1  0
 26 69  1  0
 27 70  1  6
 28 71  1  0
 28 72  1  0
 30 73  1  0
 30 74  1  0
 31 75  1  0
 31 76  1  0
M  END
