
     RDKit          2D

103110  0  0  0  0  0  0  0  0999 V2000
    7.3293   29.6149    1.4813 C   0  0  0  0  0  0  0  0  0  0  0  0
    6.0365   29.9888    2.1435 C   0  0  0  0  0  0  0  0  0  0  0  0
    4.7436   30.3627    2.8058 O   0  0  0  0  0  0  0  0  0  0  0  0
    3.7442   29.2995    3.1537 C   0  0  0  0  0  0  0  0  0  0  0  0
    2.7449   28.2363    3.5016 N   0  0  0  0  0  0  0  0  0  0  0  0
    2.8205   26.7714    3.8152 C   0  0  0  0  0  0  0  0  0  0  0  0
    2.8961   25.3064    4.1287 C   0  0  0  0  0  0  0  0  0  0  0  0
    1.4167   25.5229    4.2500 C   0  0  0  0  0  0  0  0  0  0  0  0
    0.5176   24.3758    4.6050 C   0  0  0  0  0  0  0  0  0  0  0  0
   -0.7339   23.6099    4.9163 C   0  0  0  0  0  0  0  0  0  0  0  0
   -1.9855   22.8441    5.2276 C   0  0  0  0  0  0  0  0  0  0  0  0
    1.0979   23.0124    4.8385 C   0  0  0  0  0  0  0  0  0  0  0  0
    0.9915   21.5537    5.1715 C   0  0  0  0  0  0  0  0  0  0  0  0
    2.3727   20.9696    5.1422 C   0  0  0  0  0  0  0  0  0  0  0  0
    1.6707   19.6941    5.5029 C   0  0  0  0  0  0  0  0  0  0  0  0
    3.7663   21.8840    4.7820 C   0  0  0  0  0  0  0  0  0  0  0  0
    4.6655   23.0311    4.4270 C   0  0  0  0  0  0  0  0  0  0  0  0
    3.4763   23.9432    4.3622 C   0  0  0  0  0  0  0  0  0  0  0  0
    2.5772   22.7961    4.7172 C   0  0  0  0  0  0  0  0  0  0  0  0
    1.6387   29.2449    3.4061 C   0  0  0  0  0  0  0  0  0  0  0  0
    0.6394   28.1817    3.7541 C   0  0  0  0  0  0  0  0  0  0  0  0
   -0.3600   27.1185    4.1020 C   0  0  0  0  0  0  0  0  0  0  0  0
   -1.3592   26.0554    4.4499 C   0  0  0  0  0  0  0  0  0  0  0  0
   -1.4662   28.1271    4.0067 O   0  0  0  0  0  0  0  0  0  0  0  0
   -2.8847   27.7107    4.2604 C   0  0  0  0  0  0  0  0  0  0  0  0
   -0.2392   29.2164    4.3924 C   0  0  0  0  0  0  0  0  0  0  0  0
   -1.0974   28.1308    4.9712 N   0  0  0  0  0  0  0  0  0  0  0  0
   -1.9759   29.1655    5.6095 C   0  0  0  0  0  0  0  0  0  0  0  0
   -3.0322   28.3846    6.3337 C   0  0  0  0  0  0  0  0  0  0  0  0
   -2.3077   30.6044    5.8729 C   0  0  0  0  0  0  0  0  0  0  0  0
   -3.4977   30.9576    6.7151 I   0  0  0  0  0  0  0  0  0  0  0  0
   -1.4496   31.6901    5.2941 O   0  0  0  0  0  0  0  0  0  0  0  0
   -1.1178   30.2512    5.0307 C   0  0  0  0  0  0  0  0  0  0  0  0
    0.5325   30.2535    3.3107 C   0  0  0  0  0  0  0  0  0  0  0  0
   -0.5737   31.2619    3.2152 C   0  0  0  0  0  0  0  0  0  0  0  0
    1.5314   31.3159    2.9601 C   0  0  0  0  0  0  0  0  0  0  0  0
    2.7944   30.5073    2.9932 C   0  0  0  0  0  0  0  0  0  0  0  0
    2.0919   32.6594    2.5980 C   0  0  0  0  0  0  0  0  0  0  0  0
    0.6155   32.4937    2.8052 C   0  0  0  0  0  0  0  0  0  0  0  0
    0.1571   33.8985    2.5472 O   0  0  0  0  0  0  0  0  0  0  0  0
   -1.3005   34.2406    2.6399 C   0  0  0  0  0  0  0  0  0  0  0  0
    2.6380   30.3081    3.0582 C   0  0  0  0  0  0  0  0  0  0  0  0
    3.6373   31.3712    2.7103 O   0  0  0  0  0  0  0  0  0  0  0  0
    1.5318   31.3165    2.9628 N   0  0  0  0  0  0  0  0  0  0  0  0
    1.8439   32.7411    2.6117 O   0  0  0  0  0  0  0  0  0  0  0  0
    8.6223   29.2409    0.8190 H   0  0  0  0  0  0  0  0  0  0  0  0
    7.7373   31.0582    1.4627 H   0  0  0  0  0  0  0  0  0  0  0  0
    6.9214   28.1715    1.4999 H   0  0  0  0  0  0  0  0  0  0  0  0
    5.6282   28.5455    2.1612 H   0  0  0  0  0  0  0  0  0  0  0  0
    6.4447   31.4321    2.1259 H   0  0  0  0  0  0  0  0  0  0  0  0
    4.8505   28.2909    3.2492 H   0  0  0  0  0  0  0  0  0  0  0  0
    4.2196   26.9527    4.3247 H   0  0  0  0  0  0  0  0  0  0  0  0
    1.4410   26.4130    3.3476 H   0  0  0  0  0  0  0  0  0  0  0  0
    4.2978   25.7718    3.8663 H   0  0  0  0  0  0  0  0  0  0  0  0
    0.0167   26.0596    4.2919 H   0  0  0  0  0  0  0  0  0  0  0  0
    1.8549   26.9126    3.8944 H   0  0  0  0  0  0  0  0  0  0  0  0
   -0.6228   25.3466    4.5217 H   0  0  0  0  0  0  0  0  0  0  0  0
   -1.6903   24.7568    4.7744 H   0  0  0  0  0  0  0  0  0  0  0  0
   -0.2511   22.2121    5.1675 H   0  0  0  0  0  0  0  0  0  0  0  0
   -3.2372   22.0781    5.5390 H   0  0  0  0  0  0  0  0  0  0  0  0
   -2.7954   24.0932    5.0449 H   0  0  0  0  0  0  0  0  0  0  0  0
   -1.3342   21.5108    5.4470 H   0  0  0  0  0  0  0  0  0  0  0  0
    0.1988   21.8655    5.1934 H   0  0  0  0  0  0  0  0  0  0  0  0
   -0.4724   21.3115    5.3919 H   0  0  0  0  0  0  0  0  0  0  0  0
    0.4067   20.2202    5.5315 H   0  0  0  0  0  0  0  0  0  0  0  0
    3.4962   19.9798    5.2316 H   0  0  0  0  0  0  0  0  0  0  0  0
    0.9687   18.4186    5.8635 H   0  0  0  0  0  0  0  0  0  0  0  0
    2.9871   18.9753    5.5230 H   0  0  0  0  0  0  0  0  0  0  0  0
    0.2785   20.2521    5.5268 H   0  0  0  0  0  0  0  0  0  0  0  0
    4.1498   20.4592    5.0515 H   0  0  0  0  0  0  0  0  0  0  0  0
    5.5645   24.1781    4.0721 H   0  0  0  0  0  0  0  0  0  0  0  0
    5.8545   22.1190    4.4918 H   0  0  0  0  0  0  0  0  0  0  0  0
    4.7554   24.6649    4.0575 H   0  0  0  0  0  0  0  0  0  0  0  0
    1.6989   21.6334    5.0732 H   0  0  0  0  0  0  0  0  0  0  0  0
    1.5180   27.1470    3.1158 H   0  0  0  0  0  0  0  0  0  0  0  0
    0.4715   25.8827    4.2786 H   0  0  0  0  0  0  0  0  0  0  0  0
   -2.4860   25.1230    4.7834 H   0  0  0  0  0  0  0  0  0  0  0  0
   -2.8054   26.4463    4.5278 H   0  0  0  0  0  0  0  0  0  0  0  0
   -0.3830   24.9250    4.5884 H   0  0  0  0  0  0  0  0  0  0  0  0
   -4.2368   27.1261    4.5434 H   0  0  0  0  0  0  0  0  0  0  0  0
   -3.6726   28.9732    4.0729 H   0  0  0  0  0  0  0  0  0  0  0  0
   -2.6027   26.2654    4.5459 H   0  0  0  0  0  0  0  0  0  0  0  0
   -1.0974   28.1308    4.9712 H   0  0  0  0  0  0  0  0  0  0  0  0
   -1.3805   26.6673    5.1386 H   0  0  0  0  0  0  0  0  0  0  0  0
   -4.1569   27.7657    7.1095 H   0  0  0  0  0  0  0  0  0  0  0  0
   -3.6587   29.6651    6.8005 H   0  0  0  0  0  0  0  0  0  0  0  0
   -2.8259   26.9094    6.1576 H   0  0  0  0  0  0  0  0  0  0  0  0
   -0.7046   29.4665    3.6277 H   0  0  0  0  0  0  0  0  0  0  0  0
   -1.5499   32.3926    3.0780 H   0  0  0  0  0  0  0  0  0  0  0  0
    0.1282   32.5376    2.8546 H   0  0  0  0  0  0  0  0  0  0  0  0
   -1.8110   30.4744    3.5296 H   0  0  0  0  0  0  0  0  0  0  0  0
    4.2113   30.0182    2.9379 H   0  0  0  0  0  0  0  0  0  0  0  0
    3.9862   31.3578    2.6673 H   0  0  0  0  0  0  0  0  0  0  0  0
    2.3317   29.1263    3.3524 H   0  0  0  0  0  0  0  0  0  0  0  0
    3.5816   32.6722    2.4232 H   0  0  0  0  0  0  0  0  0  0  0  0
    2.1461   34.1217    2.2681 H   0  0  0  0  0  0  0  0  0  0  0  0
   -0.8312   32.1769    3.0424 H   0  0  0  0  0  0  0  0  0  0  0  0
   -2.7580   34.5825    2.7325 H   0  0  0  0  0  0  0  0  0  0  0  0
   -1.6118   32.8173    2.9970 H   0  0  0  0  0  0  0  0  0  0  0  0
   -1.1692   35.6949    2.2967 H   0  0  0  0  0  0  0  0  0  0  0  0
    3.3551   32.8162    2.4233 H   0  0  0  0  0  0  0  0  0  0  0  0
    0.0643   31.6089    3.0674 H   0  0  0  0  0  0  0  0  0  0  0  0
    1.0123   33.9768    2.4343 H   0  0  0  0  0  0  0  0  0  0  0  0
  1  2  1  0
  2  3  1  0
  3  4  1  0
  4  5  1  0
  5  6  1  0
  6  7  1  0
  7  8  1  0
  8  9  1  0
  9 10  1  0
 10 11  1  0
  9 12  1  0
 12 13  1  0
 13 14  1  0
 14 15  1  0
 14 16  1  0
 16 17  1  0
 17 18  1  0
 18 19  1  0
  5 20  1  0
 20 21  1  0
 21 22  1  0
 22 23  1  0
 22 24  1  0
 24 25  1  0
 21 26  1  0
 26 27  1  0
 27 28  1  0
 28 29  1  0
 28 30  1  0
 30 31  1  0
 30 32  1  0
 32 33  1  0
 20 34  1  0
 34 35  1  0
 34 36  1  0
 36 37  1  0
 36 38  1  0
 38 39  1  0
 39 40  1  0
 40 41  1  0
 20 42  1  0
 42 43  1  0
 42 44  1  0
 44 45  1  0
 42  4  1  0
 18  7  1  0
 33 26  1  0
 39 36  1  0
 19 12  1  0
 33 28  1  0
 19 16  1  0
 33 30  1  0
  1 46  1  0
  1 47  1  0
  1 48  1  0
  2 49  1  0
  2 50  1  0
  4 51  1  0
  6 52  1  0
  6 53  1  0
  7 54  1  0
  8 55  1  0
  8 56  1  0
  9 57  1  0
 10 58  1  0
 10 59  1  0
 11 60  1  0
 11 61  1  0
 11 62  1  0
 12 63  1  0
 13 64  1  0
 13 65  1  0
 14 66  1  0
 15 67  1  0
 15 68  1  0
 15 69  1  0
 16 70  1  0
 17 71  1  0
 17 72  1  0
 18 73  1  0
 19 74  1  0
 21 75  1  0
 22 76  1  0
 23 77  1  0
 23 78  1  0
 23 79  1  0
 25 80  1  0
 25 81  1  0
 25 82  1  0
 26 83  1  0
 27 84  1  0
 29 85  1  0
 29 86  1  0
 29 87  1  0
 34 88  1  0
 35 89  1  0
 35 90  1  0
 35 91  1  0
 37 92  1  0
 37 93  1  0
 37 94  1  0
 38 95  1  0
 38 96  1  0
 39 97  1  0
 41 98  1  0
 41 99  1  0
 41100  1  0
 43101  1  0
 44102  1  0
 45103  1  0
M  END
