
     RDKit          2D

 22 25  0  0  0  0  0  0  0  0999 V2000
   14.3282  -22.5742   -9.3549 N   0  0  0  0  0  0  0  0  0  0  0  0
   15.6956  -22.2046   -8.8612 C   0  0  0  0  0  0  0  0  0  0  0  0
   17.0629  -21.8351   -8.3674 N   0  0  0  0  0  0  0  0  0  0  0  0
   18.3873  -21.1667   -8.5891 C   0  0  0  0  0  0  0  0  0  0  0  0
   18.1068  -21.8633   -7.2906 C   0  0  0  0  0  0  0  0  0  0  0  0
   19.4047  -21.6203   -6.5789 O   0  0  0  0  0  0  0  0  0  0  0  0
   15.4138  -22.8984   -7.5615 N   0  0  0  0  0  0  0  0  0  0  0  0
   14.4869  -23.6861   -6.6837 C   0  0  0  0  0  0  0  0  0  0  0  0
   14.9257  -24.1001   -5.3103 C   0  0  0  0  0  0  0  0  0  0  0  0
   16.2913  -23.7265   -4.8148 C   0  0  0  0  0  0  0  0  0  0  0  0
   15.8526  -23.3124   -6.1881 C   0  0  0  0  0  0  0  0  0  0  0  0
   13.8875  -22.1557  -10.7262 H   0  0  0  0  0  0  0  0  0  0  0  0
   13.4016  -23.3623   -8.4773 H   0  0  0  0  0  0  0  0  0  0  0  0
   15.9774  -21.5108  -10.1609 H   0  0  0  0  0  0  0  0  0  0  0  0
   18.1834  -20.6384   -9.9781 H   0  0  0  0  0  0  0  0  0  0  0  0
   19.7826  -20.6818   -8.3283 H   0  0  0  0  0  0  0  0  0  0  0  0
   17.3754  -22.6444   -6.2393 H   0  0  0  0  0  0  0  0  0  0  0  0
   19.6086  -22.1486   -5.1899 H   0  0  0  0  0  0  0  0  0  0  0  0
   13.1213  -24.0597   -7.1792 H   0  0  0  0  0  0  0  0  0  0  0  0
   13.9989  -24.8878   -4.4325 H   0  0  0  0  0  0  0  0  0  0  0  0
   16.2509  -24.3449   -3.4488 H   0  0  0  0  0  0  0  0  0  0  0  0
   17.6709  -23.1381   -4.7937 H   0  0  0  0  0  0  0  0  0  0  0  0
  1  2  1  0
  2  3  1  0
  3  4  1  0
  4  5  1  0
  5  6  1  0
  2  7  1  0
  7  8  1  0
  8  9  1  0
  9 10  1  0
 10 11  1  0
  5  3  1  0
 11  7  1  0
 11  8  1  0
 11  9  1  0
  1 12  1  0
  1 13  1  0
  2 14  1  0
  4 15  1  0
  4 16  1  0
  5 17  1  0
  6 18  1  0
  8 19  1  0
  9 20  1  0
 10 21  1  0
 10 22  1  0
M  END
