
     RDKit          2D

 46 46  0  0  0  0  0  0  0  0999 V2000
   20.9169  -21.7181   -7.2819 C   0  0  0  0  0  0  0  0  0  0  0  0
   19.5071  -22.1843   -7.4943 C   0  0  0  0  0  0  0  0  0  0  0  0
   18.0973  -22.6505   -7.7067 C   0  0  0  0  0  0  0  0  0  0  0  0
   16.6876  -23.1167   -7.9191 C   0  0  0  0  0  0  0  0  0  0  0  0
   15.2778  -23.5830   -8.1315 C   0  0  0  0  0  0  0  0  0  0  0  0
   13.8680  -24.0492   -8.3439 N   0  0  0  0  0  0  0  0  0  0  0  0
   12.8872  -23.1697   -9.0612 C   0  0  0  0  0  0  0  0  0  0  0  0
   13.3887  -23.8764  -10.2856 C   0  0  0  0  0  0  0  0  0  0  0  0
   12.6559  -23.3244  -11.4723 C   0  0  0  0  0  0  0  0  0  0  0  0
   11.7015  -22.2765  -10.9813 O   0  0  0  0  0  0  0  0  0  0  0  0
   11.8444  -22.1809   -9.4912 C   0  0  0  0  0  0  0  0  0  0  0  0
   17.0884  -23.7332   -9.2265 O   0  0  0  0  0  0  0  0  0  0  0  0
   18.5096  -23.6369   -9.6967 C   0  0  0  0  0  0  0  0  0  0  0  0
   19.9307  -23.5407  -10.1669 C   0  0  0  0  0  0  0  0  0  0  0  0
   21.3519  -23.4443  -10.6370 C   0  0  0  0  0  0  0  0  0  0  0  0
   19.5731  -24.3079  -11.4052 N   0  0  0  0  0  0  0  0  0  0  0  0
   20.2884  -22.7734   -8.9285 O   0  0  0  0  0  0  0  0  0  0  0  0
   19.2886  -22.1994   -6.0104 O   0  0  0  0  0  0  0  0  0  0  0  0
   20.4002  -21.8031   -5.0845 C   0  0  0  0  0  0  0  0  0  0  0  0
   20.1816  -21.8182   -3.6006 O   0  0  0  0  0  0  0  0  0  0  0  0
   22.3267  -21.2518   -7.0694 H   0  0  0  0  0  0  0  0  0  0  0  0
   21.4870  -22.2746   -8.5528 H   0  0  0  0  0  0  0  0  0  0  0  0
   20.8688  -21.0057   -5.9627 H   0  0  0  0  0  0  0  0  0  0  0  0
   19.8012  -22.1166   -8.2322 H   0  0  0  0  0  0  0  0  0  0  0  0
   17.6965  -22.0342   -6.3992 H   0  0  0  0  0  0  0  0  0  0  0  0
   18.9769  -23.0588   -8.8512 H   0  0  0  0  0  0  0  0  0  0  0  0
   16.2867  -22.5003   -6.6117 H   0  0  0  0  0  0  0  0  0  0  0  0
   14.8771  -22.9669   -6.8239 H   0  0  0  0  0  0  0  0  0  0  0  0
   15.6785  -24.1991   -9.4392 H   0  0  0  0  0  0  0  0  0  0  0  0
   13.6104  -25.4140   -7.7773 H   0  0  0  0  0  0  0  0  0  0  0  0
   12.5907  -22.6469   -7.6869 H   0  0  0  0  0  0  0  0  0  0  0  0
   14.0733  -24.7361  -11.3065 H   0  0  0  0  0  0  0  0  0  0  0  0
   14.3308  -24.6987   -9.4572 H   0  0  0  0  0  0  0  0  0  0  0  0
   12.0982  -22.9762  -12.8206 H   0  0  0  0  0  0  0  0  0  0  0  0
   13.4937  -24.2994  -12.2451 H   0  0  0  0  0  0  0  0  0  0  0  0
   11.7660  -21.8648   -8.0271 H   0  0  0  0  0  0  0  0  0  0  0  0
   10.7853  -21.1260   -9.6151 H   0  0  0  0  0  0  0  0  0  0  0  0
   19.0683  -22.9972   -8.4602 H   0  0  0  0  0  0  0  0  0  0  0  0
   17.9509  -24.2767  -10.9331 H   0  0  0  0  0  0  0  0  0  0  0  0
   22.7731  -23.3481  -11.1072 H   0  0  0  0  0  0  0  0  0  0  0  0
   21.1702  -24.1946  -11.9231 H   0  0  0  0  0  0  0  0  0  0  0  0
   21.8800  -22.6707   -9.4655 H   0  0  0  0  0  0  0  0  0  0  0  0
   20.4928  -24.6933  -12.5256 H   0  0  0  0  0  0  0  0  0  0  0  0
   18.2226  -24.8460  -11.7753 H   0  0  0  0  0  0  0  0  0  0  0  0
   21.6982  -22.3071   -8.7162 H   0  0  0  0  0  0  0  0  0  0  0  0
   21.7304  -21.3919   -5.6425 H   0  0  0  0  0  0  0  0  0  0  0  0
  1  2  1  0
  2  3  1  0
  3  4  1  0
  4  5  1  0
  5  6  1  0
  6  7  1  0
  7  8  1  0
  8  9  1  0
  9 10  1  0
 10 11  1  0
  4 12  1  0
 12 13  1  0
 13 14  1  0
 14 15  1  0
 14 16  1  0
 14 17  1  0
  2 18  1  0
 18 19  1  0
 19 20  2  0
 11  7  1  0
  1 21  1  0
  1 22  1  0
  1 23  1  0
  2 24  1  0
  3 25  1  0
  3 26  1  0
  4 27  1  0
  5 28  1  0
  5 29  1  0
  6 30  1  0
  7 31  1  0
  8 32  1  0
  8 33  1  0
  9 34  1  0
  9 35  1  0
 11 36  1  0
 11 37  1  0
 13 38  1  0
 13 39  1  0
 15 40  1  0
 15 41  1  0
 15 42  1  0
 16 43  1  0
 16 44  1  0
 17 45  1  0
 19 46  1  0
M  END
