
     RDKit          2D

 86 95  0  0  0  0  0  0  0  0999 V2000
   -4.3213   24.0417    2.7673 C   0  0  0  0  0  0  0  0  0  0  0  0
   -3.4359   23.5804    3.8867 C   0  0  0  0  0  0  0  0  0  0  0  0
   -2.5504   23.1192    5.0061 C   0  0  0  0  0  0  0  0  0  0  0  0
   -3.3105   21.8279    5.0753 C   0  0  0  0  0  0  0  0  0  0  0  0
   -2.4250   21.3666    6.1947 C   0  0  0  0  0  0  0  0  0  0  0  0
   -1.8178   20.5289    7.2807 C   0  0  0  0  0  0  0  0  0  0  0  0
   -0.6824   21.3024    7.8828 C   0  0  0  0  0  0  0  0  0  0  0  0
   -0.5879   22.6182    7.1688 C   0  0  0  0  0  0  0  0  0  0  0  0
   -1.6649   22.6579    6.1256 C   0  0  0  0  0  0  0  0  0  0  0  0
   -2.6748   24.8711    3.8165 C   0  0  0  0  0  0  0  0  0  0  0  0
   -3.9097   25.5731    3.3346 N   0  0  0  0  0  0  0  0  0  0  0  0
   -5.1689   24.7947    3.0930 C   0  0  0  0  0  0  0  0  0  0  0  0
   -6.4281   24.0163    2.8513 O   0  0  0  0  0  0  0  0  0  0  0  0
   -1.9137   26.1617    3.7463 C   0  0  0  0  0  0  0  0  0  0  0  0
   -1.1526   27.4524    3.6760 C   0  0  0  0  0  0  0  0  0  0  0  0
   -0.3914   28.7430    3.6058 N   0  0  0  0  0  0  0  0  0  0  0  0
   -0.8263   29.9162    4.4332 C   0  0  0  0  0  0  0  0  0  0  0  0
   -1.2612   31.0893    5.2606 C   0  0  0  0  0  0  0  0  0  0  0  0
   -0.1290   31.9011    4.7048 O   0  0  0  0  0  0  0  0  0  0  0  0
   -1.6962   32.2625    6.0881 C   0  0  0  0  0  0  0  0  0  0  0  0
   -0.9351   33.5531    6.0179 O   0  0  0  0  0  0  0  0  0  0  0  0
   -2.3587   26.3469    2.3258 C   0  0  0  0  0  0  0  0  0  0  0  0
   -2.8037   26.5320    0.9054 C   0  0  0  0  0  0  0  0  0  0  0  0
   -3.5648   25.2414    0.9756 C   0  0  0  0  0  0  0  0  0  0  0  0
   -3.5600   24.4357    2.2409 C   0  0  0  0  0  0  0  0  0  0  0  0
   -3.8569   23.3280    3.2077 C   0  0  0  0  0  0  0  0  0  0  0  0
   -3.2820   23.3670    4.5925 C   0  0  0  0  0  0  0  0  0  0  0  0
   -4.1540   22.2203    4.1745 C   0  0  0  0  0  0  0  0  0  0  0  0
   -5.0259   21.0736    3.7565 C   0  0  0  0  0  0  0  0  0  0  0  0
   -4.7289   22.1813    2.7896 C   0  0  0  0  0  0  0  0  0  0  0  0
   -2.7940   24.9207    3.4359 C   0  0  0  0  0  0  0  0  0  0  0  0
   -2.0329   26.2113    3.3657 C   0  0  0  0  0  0  0  0  0  0  0  0
   -1.1929   26.9374    4.3743 C   0  0  0  0  0  0  0  0  0  0  0  0
   -0.6786   28.1917    3.7324 C   0  0  0  0  0  0  0  0  0  0  0  0
   -0.3244   29.3447    2.8407 C   0  0  0  0  0  0  0  0  0  0  0  0
   -1.2007   28.2410    2.3271 C   0  0  0  0  0  0  0  0  0  0  0  0
   -2.0377   27.0170    2.1004 C   0  0  0  0  0  0  0  0  0  0  0  0
   -2.0426   27.8227    0.8351 C   0  0  0  0  0  0  0  0  0  0  0  0
   -5.4608   23.8431    1.8121 H   0  0  0  0  0  0  0  0  0  0  0  0
   -5.2747   22.9014    2.5651 H   0  0  0  0  0  0  0  0  0  0  0  0
   -3.4574   25.2661    2.8334 H   0  0  0  0  0  0  0  0  0  0  0  0
   -3.9601   22.2165    4.2257 H   0  0  0  0  0  0  0  0  0  0  0  0
   -3.5022   21.9778    4.8024 H   0  0  0  0  0  0  0  0  0  0  0  0
   -3.9571   20.4900    5.2804 H   0  0  0  0  0  0  0  0  0  0  0  0
   -2.6353   21.0679    6.1782 H   0  0  0  0  0  0  0  0  0  0  0  0
   -3.3143   20.1633    6.0879 H   0  0  0  0  0  0  0  0  0  0  0  0
   -2.8724   19.5368    6.8886 H   0  0  0  0  0  0  0  0  0  0  0  0
   -1.4310   19.4837    8.2848 H   0  0  0  0  0  0  0  0  0  0  0  0
   -0.5329   20.0956    8.7610 H   0  0  0  0  0  0  0  0  0  0  0  0
    0.4843   21.8237    8.6684 H   0  0  0  0  0  0  0  0  0  0  0  0
    0.5590   22.8643    8.1037 H   0  0  0  0  0  0  0  0  0  0  0  0
   -0.2536   23.9854    6.6503 H   0  0  0  0  0  0  0  0  0  0  0  0
   -1.0527   24.0054    5.8821 H   0  0  0  0  0  0  0  0  0  0  0  0
   -1.4399   24.1690    4.2983 H   0  0  0  0  0  0  0  0  0  0  0  0
   -4.5644   26.8595    2.9263 H   0  0  0  0  0  0  0  0  0  0  0  0
   -6.2724   25.6917    2.6158 H   0  0  0  0  0  0  0  0  0  0  0  0
   -5.1435   23.3168    3.3489 H   0  0  0  0  0  0  0  0  0  0  0  0
   -7.6630   24.7183    2.3694 H   0  0  0  0  0  0  0  0  0  0  0  0
   -1.3792   26.1353    5.1476 H   0  0  0  0  0  0  0  0  0  0  0  0
   -0.0412   26.8406    4.4765 H   0  0  0  0  0  0  0  0  0  0  0  0
   -1.6261   28.6939    2.9802 H   0  0  0  0  0  0  0  0  0  0  0  0
    0.8146   29.2013    2.8407 H   0  0  0  0  0  0  0  0  0  0  0  0
   -2.0738   29.1795    4.8220 H   0  0  0  0  0  0  0  0  0  0  0  0
    0.3588   30.7904    4.1482 H   0  0  0  0  0  0  0  0  0  0  0  0
   -2.3935   30.2775    5.8165 H   0  0  0  0  0  0  0  0  0  0  0  0
    1.1381   31.2241    4.2733 H   0  0  0  0  0  0  0  0  0  0  0  0
   -2.8922   32.1449    6.9857 H   0  0  0  0  0  0  0  0  0  0  0  0
   -1.4547   27.4640    2.7560 H   0  0  0  0  0  0  0  0  0  0  0  0
   -3.0959   25.0661    2.5830 H   0  0  0  0  0  0  0  0  0  0  0  0
   -4.4446   24.2750    0.2394 H   0  0  0  0  0  0  0  0  0  0  0  0
   -3.8708   25.6479   -0.4355 H   0  0  0  0  0  0  0  0  0  0  0  0
   -4.4245   23.2756    1.8449 H   0  0  0  0  0  0  0  0  0  0  0  0
   -2.3962   24.4166    5.1956 H   0  0  0  0  0  0  0  0  0  0  0  0
   -2.9725   22.9585    6.0023 H   0  0  0  0  0  0  0  0  0  0  0  0
   -5.1274   20.1482    4.9326 H   0  0  0  0  0  0  0  0  0  0  0  0
   -5.9002   20.2070    2.8992 H   0  0  0  0  0  0  0  0  0  0  0  0
   -5.3038   22.1423    1.4048 H   0  0  0  0  0  0  0  0  0  0  0  0
   -2.1459   25.1210    4.7737 H   0  0  0  0  0  0  0  0  0  0  0  0
   -3.3570   23.6446    3.9877 H   0  0  0  0  0  0  0  0  0  0  0  0
   -1.9360   25.5172    4.6918 H   0  0  0  0  0  0  0  0  0  0  0  0
   -0.9159   26.4879    5.7783 H   0  0  0  0  0  0  0  0  0  0  0  0
   -0.0411   28.3695    5.0785 H   0  0  0  0  0  0  0  0  0  0  0  0
    0.5513   30.2641    3.6394 H   0  0  0  0  0  0  0  0  0  0  0  0
   -0.2677   30.2199    1.6238 H   0  0  0  0  0  0  0  0  0  0  0  0
   -1.3887   28.8159    0.9544 H   0  0  0  0  0  0  0  0  0  0  0  0
   -1.6059   29.0330    0.0641 H   0  0  0  0  0  0  0  0  0  0  0  0
  1  2  1  0
  2  3  1  0
  3  4  1  0
  4  5  1  0
  5  6  1  0
  6  7  1  0
  7  8  1  0
  8  9  1  0
  2 10  1  0
 10 11  1  0
 11 12  1  0
 12 13  1  0
 10 14  1  0
 14 15  1  0
 15 16  1  0
 16 17  1  0
 17 18  1  0
 18 19  1  0
 18 20  1  0
 20 21  2  0
 14 22  1  0
 22 23  1  0
 23 24  1  0
 24 25  1  0
 25 26  1  0
 26 27  1  0
 27 28  1  0
 28 29  1  0
 29 30  1  0
 25 31  1  0
 31 32  1  0
 32 33  1  0
 33 34  1  0
 34 35  1  0
 35 36  1  0
 36 37  1  0
 37 38  1  0
  9  3  1  0
 37 23  1  0
  9  5  1  0
 38 23  1  0
 28 26  1  0
 37 32  1  0
 30 26  1  0
 38 33  1  0
 30 28  1  0
 36 34  1  0
  1 39  1  0
  1 40  1  0
  1 41  1  0
  2 42  1  0
  3 43  1  0
  4 44  1  0
  4 45  1  0
  5 46  1  0
  6 47  1  0
  6 48  1  0
  7 49  1  0
  7 50  1  0
  8 51  1  0
  8 52  1  0
  9 53  1  0
 10 54  1  0
 11 55  1  0
 12 56  1  0
 12 57  1  0
 13 58  1  0
 14 59  1  0
 15 60  1  0
 15 61  1  0
 16 62  1  0
 17 63  1  0
 17 64  1  0
 18 65  1  0
 19 66  1  0
 20 67  1  0
 22 68  1  0
 22 69  1  0
 24 70  1  0
 24 71  1  0
 25 72  1  0
 27 73  1  0
 27 74  1  0
 29 75  1  0
 29 76  1  0
 30 77  1  0
 31 78  1  0
 31 79  1  0
 32 80  1  0
 33 81  1  0
 34 82  1  0
 35 83  1  0
 35 84  1  0
 36 85  1  0
 38 86  1  0
M  END
