
     RDKit          2D

 31 32  0  0  0  0  0  0  0  0999 V2000
   18.6372  -20.4848  -11.0477 C   0  0  0  0  0  0  0  0  0  0  0  0
   17.4752  -20.4094  -10.1021 C   0  0  0  0  0  0  0  0  0  0  0  0
   16.3132  -20.3341   -9.1566 C   0  0  0  0  0  0  0  0  0  0  0  0
   15.1512  -20.2587   -8.2111 N   0  0  0  0  0  0  0  0  0  0  0  0
   15.3874  -20.0107   -6.7507 C   0  0  0  0  0  0  0  0  0  0  0  0
   16.7857  -19.8381   -6.2358 O   0  0  0  0  0  0  0  0  0  0  0  0
   14.2253  -19.9353   -5.8052 N   0  0  0  0  0  0  0  0  0  0  0  0
   14.4616  -19.6874   -4.3448 C   0  0  0  0  0  0  0  0  0  0  0  0
   14.6978  -19.4394   -2.8844 C   0  0  0  0  0  0  0  0  0  0  0  0
   13.3945  -20.1075   -2.5601 C   0  0  0  0  0  0  0  0  0  0  0  0
   12.1477  -20.8100   -3.0095 C   0  0  0  0  0  0  0  0  0  0  0  0
   13.1583  -20.3554   -4.0205 C   0  0  0  0  0  0  0  0  0  0  0  0
   12.5928  -20.7678   -5.3472 C   0  0  0  0  0  0  0  0  0  0  0  0
   19.7992  -20.5602  -11.9932 H   0  0  0  0  0  0  0  0  0  0  0  0
   19.5810  -20.2440   -9.9070 H   0  0  0  0  0  0  0  0  0  0  0  0
   17.6935  -20.7257  -12.1883 H   0  0  0  0  0  0  0  0  0  0  0  0
   18.4188  -20.1662   -8.9618 H   0  0  0  0  0  0  0  0  0  0  0  0
   16.5316  -20.6526  -11.2424 H   0  0  0  0  0  0  0  0  0  0  0  0
   17.2439  -19.9553   -8.0429 H   0  0  0  0  0  0  0  0  0  0  0  0
   15.3825  -20.7128  -10.2702 H   0  0  0  0  0  0  0  0  0  0  0  0
   13.7529  -20.4313   -8.7259 H   0  0  0  0  0  0  0  0  0  0  0  0
   13.4823  -20.0271   -6.0788 H   0  0  0  0  0  0  0  0  0  0  0  0
   15.7648  -19.0193   -4.6690 H   0  0  0  0  0  0  0  0  0  0  0  0
   16.0011  -18.7713   -3.2086 H   0  0  0  0  0  0  0  0  0  0  0  0
   14.9340  -19.1914   -1.4240 H   0  0  0  0  0  0  0  0  0  0  0  0
   13.2854  -20.0408   -1.0656 H   0  0  0  0  0  0  0  0  0  0  0  0
   11.4909  -21.0494   -1.6824 H   0  0  0  0  0  0  0  0  0  0  0  0
   11.0334  -21.4677   -3.7684 H   0  0  0  0  0  0  0  0  0  0  0  0
   12.0273  -21.1803   -6.6740 H   0  0  0  0  0  0  0  0  0  0  0  0
   13.2364  -20.8963   -5.7997 H   0  0  0  0  0  0  0  0  0  0  0  0
   11.1451  -20.6730   -4.9664 H   0  0  0  0  0  0  0  0  0  0  0  0
  1  2  1  0
  2  3  1  0
  3  4  1  0
  4  5  1  0
  5  6  2  0
  5  7  1  0
  7  8  1  0
  8  9  1  0
  9 10  1  0
 10 11  1  0
 11 12  1  0
 12 13  1  0
 12  8  1  0
 12 10  1  0
  1 14  1  0
  1 15  1  0
  1 16  1  0
  2 17  1  0
  2 18  1  0
  3 19  1  0
  3 20  1  0
  4 21  1  0
  7 22  1  0
  8 23  1  0
  9 24  1  0
  9 25  1  0
 10 26  1  0
 11 27  1  0
 11 28  1  0
 13 29  1  0
 13 30  1  0
 13 31  1  0
M  END
