
     RDKit          2D

 51 54  0  0  0  0  0  0  0  0999 V2000
   -3.8484   25.6569   14.9632 C   0  0  0  0  0  0  0  0  0  0  0  0
   -3.3377   24.9993   13.7156 C   0  0  0  0  0  0  0  0  0  0  0  0
   -2.8270   24.3416   12.4679 C   0  0  0  0  0  0  0  0  0  0  0  0
   -2.3163   23.6839   11.2202 C   0  0  0  0  0  0  0  0  0  0  0  0
   -1.8057   23.0263    9.9726 C   0  0  0  0  0  0  0  0  0  0  0  0
   -1.2950   22.3686    8.7249 C   0  0  0  0  0  0  0  0  0  0  0  0
   -0.7843   21.7109    7.4772 C   0  0  0  0  0  0  0  0  0  0  0  0
    0.6526   21.2906    7.3852 C   0  0  0  0  0  0  0  0  0  0  0  0
    1.1633   20.6329    6.1375 N   0  0  0  0  0  0  0  0  0  0  0  0
    2.2878   20.0105    5.3641 C   0  0  0  0  0  0  0  0  0  0  0  0
    2.7984   19.3529    4.1164 O   0  0  0  0  0  0  0  0  0  0  0  0
    1.3615   19.7732    4.2084 C   0  0  0  0  0  0  0  0  0  0  0  0
    0.2370   20.3956    4.9818 C   0  0  0  0  0  0  0  0  0  0  0  0
   -1.2000   20.8159    5.0739 C   0  0  0  0  0  0  0  0  0  0  0  0
   -2.1263   20.5785    3.9182 O   0  0  0  0  0  0  0  0  0  0  0  0
   -3.5632   20.9988    4.0101 C   0  0  0  0  0  0  0  0  0  0  0  0
   -3.5764   21.5807    5.3926 Cl  0  0  0  0  0  0  0  0  0  0  0  0
   -4.9957   21.2170    3.6220 C   0  0  0  0  0  0  0  0  0  0  0  0
   -4.0491   20.5629    2.6596 C   0  0  0  0  0  0  0  0  0  0  0  0
       nan       nan       nan C   0  0  0  0  0  0  0  0  0  0  0  0
       nan       nan       nan C   0  0  0  0  0  0  0  0  0  0  0  0
       nan       nan       nan C   0  0  0  0  0  0  0  0  0  0  0  0
   -1.7106   21.4735    6.3215 C   0  0  0  0  0  0  0  0  0  0  0  0
   -4.3592   26.3146   16.2109 H   0  0  0  0  0  0  0  0  0  0  0  0
   -2.4843   25.5506   15.5777 H   0  0  0  0  0  0  0  0  0  0  0  0
   -5.2126   25.7632   14.3487 H   0  0  0  0  0  0  0  0  0  0  0  0
   -1.9731   24.8946   14.3294 H   0  0  0  0  0  0  0  0  0  0  0  0
   -4.7023   25.1039   13.1018 H   0  0  0  0  0  0  0  0  0  0  0  0
   -1.4623   24.2369   13.0816 H   0  0  0  0  0  0  0  0  0  0  0  0
   -4.1917   24.4462   11.8542 H   0  0  0  0  0  0  0  0  0  0  0  0
   -3.7266   23.4595   10.7613 H   0  0  0  0  0  0  0  0  0  0  0  0
   -0.9060   23.9083   11.6791 H   0  0  0  0  0  0  0  0  0  0  0  0
   -0.4417   22.9191   10.5873 H   0  0  0  0  0  0  0  0  0  0  0  0
   -3.1697   23.1334    9.3578 H   0  0  0  0  0  0  0  0  0  0  0  0
    0.0697   22.2640    9.3385 H   0  0  0  0  0  0  0  0  0  0  0  0
   -2.6597   22.4731    8.1112 H   0  0  0  0  0  0  0  0  0  0  0  0
    1.5789   21.5280    8.5409 H   0  0  0  0  0  0  0  0  0  0  0  0
    3.4735   20.0788    6.2803 H   0  0  0  0  0  0  0  0  0  0  0  0
    0.7578   19.3828    2.8919 H   0  0  0  0  0  0  0  0  0  0  0  0
   -0.3667   20.0052    3.6654 H   0  0  0  0  0  0  0  0  0  0  0  0
   -5.5063   21.8747    4.8696 H   0  0  0  0  0  0  0  0  0  0  0  0
   -6.1979   21.2810    3.0113 H   0  0  0  0  0  0  0  0  0  0  0  0
   -2.7808   19.9912    2.0985 H   0  0  0  0  0  0  0  0  0  0  0  0
       nan       nan       nan H   0  0  0  0  0  0  0  0  0  0  0  0
       nan       nan       nan H   0  0  0  0  0  0  0  0  0  0  0  0
       nan       nan       nan H   0  0  0  0  0  0  0  0  0  0  0  0
       nan       nan       nan H   0  0  0  0  0  0  0  0  0  0  0  0
       nan       nan       nan H   0  0  0  0  0  0  0  0  0  0  0  0
       nan       nan       nan H   0  0  0  0  0  0  0  0  0  0  0  0
       nan       nan       nan H   0  0  0  0  0  0  0  0  0  0  0  0
   -3.1476   21.8938    6.4135 H   0  0  0  0  0  0  0  0  0  0  0  0
  1  2  1  0
  2  3  1  0
  3  4  1  0
  4  5  1  0
  5  6  1  0
  6  7  1  0
  7  8  2  0
  8  9  1  0
  9 10  1  0
 10 11  1  0
 11 12  1  0
 12 13  1  0
 13 14  1  0
 14 15  1  0
 15 16  1  0
 16 17  1  0
 16 18  1  0
 18 19  1  0
 19 20  1  0
 20 21  1  0
 21 22  1  0
 14 23  2  0
 23  7  1  0
 13  9  1  0
 19 16  1  0
 12 10  1  0
  1 24  1  0
  1 25  1  0
  1 26  1  0
  2 27  1  0
  2 28  1  0
  3 29  1  0
  3 30  1  0
  4 31  1  0
  4 32  1  0
  5 33  1  0
  5 34  1  0
  6 35  1  0
  6 36  1  0
  8 37  1  0
 10 38  1  0
 12 39  1  0
 13 40  1  0
 18 41  1  0
 18 42  1  0
 19 43  1  0
 20 44  1  0
 20 45  1  0
 21 46  1  0
 21 47  1  0
 22 48  1  0
 22 49  1  0
 22 50  1  0
 23 51  1  0
M  END
