
     RDKit          2D

 60 65  0  0  0  0  0  0  0  0999 V2000
    2.0977   28.9837    1.8490 C   0  0  0  0  0  0  0  0  0  0  0  0
    0.9627   28.1144    2.3027 C   0  0  0  0  0  0  0  0  0  0  0  0
   -0.1724   27.2450    2.7565 N   0  0  0  0  0  0  0  0  0  0  0  0
    0.0068   26.3302    3.9316 C   0  0  0  0  0  0  0  0  0  0  0  0
    0.1861   25.4155    5.1068 C   0  0  0  0  0  0  0  0  0  0  0  0
   -1.2289   24.9419    4.9541 O   0  0  0  0  0  0  0  0  0  0  0  0
    0.3654   24.5006    6.2820 C   0  0  0  0  0  0  0  0  0  0  0  0
   -1.0511   24.2541    5.8548 C   0  0  0  0  0  0  0  0  0  0  0  0
   -2.3290   23.5054    6.0931 C   0  0  0  0  0  0  0  0  0  0  0  0
   -3.0622   22.4923    6.9214 C   0  0  0  0  0  0  0  0  0  0  0  0
   -4.4364   21.8913    6.9356 C   0  0  0  0  0  0  0  0  0  0  0  0
   -4.0773   22.9173    5.9021 C   0  0  0  0  0  0  0  0  0  0  0  0
   -3.0181   21.5365    8.0765 C   0  0  0  0  0  0  0  0  0  0  0  0
   -4.4392   21.1049    7.8662 C   0  0  0  0  0  0  0  0  0  0  0  0
   -5.2466   21.7000    6.7509 C   0  0  0  0  0  0  0  0  0  0  0  0
   -5.0530   20.0781    8.7713 C   0  0  0  0  0  0  0  0  0  0  0  0
   -4.2457   19.4830    9.8866 C   0  0  0  0  0  0  0  0  0  0  0  0
   -2.8246   19.9146   10.0969 C   0  0  0  0  0  0  0  0  0  0  0  0
   -2.2108   20.9413    9.1919 C   0  0  0  0  0  0  0  0  0  0  0  0
   -0.8965   20.8959    9.9132 C   0  0  0  0  0  0  0  0  0  0  0  0
    0.5075   21.4145   10.0117 C   0  0  0  0  0  0  0  0  0  0  0  0
    1.4739   20.9452   11.0586 S   0  0  0  0  0  0  0  0  0  0  0  0
    2.5219   21.8633   10.5028 C   0  0  0  0  0  0  0  0  0  0  0  0
    1.5555   22.3326    9.4559 C   0  0  0  0  0  0  0  0  0  0  0  0
    1.9147   23.3586    8.4223 C   0  0  0  0  0  0  0  0  0  0  0  0
    1.4711   24.1669    7.2392 C   0  0  0  0  0  0  0  0  0  0  0  0
    1.6974   25.1786    6.1551 C   0  0  0  0  0  0  0  0  0  0  0  0
    2.5972   26.1541    5.4560 Cl  0  0  0  0  0  0  0  0  0  0  0  0
    3.2327   29.8530    1.3952 H   0  0  0  0  0  0  0  0  0  0  0  0
    1.2319   29.5460    0.7607 H   0  0  0  0  0  0  0  0  0  0  0  0
    2.9634   28.4213    2.9372 H   0  0  0  0  0  0  0  0  0  0  0  0
    1.8260   27.5575    3.3956 H   0  0  0  0  0  0  0  0  0  0  0  0
    0.0992   28.6712    1.2098 H   0  0  0  0  0  0  0  0  0  0  0  0
   -1.4867   27.2905    2.0351 H   0  0  0  0  0  0  0  0  0  0  0  0
   -1.4185   25.9692    3.6347 H   0  0  0  0  0  0  0  0  0  0  0  0
    1.4209   26.8062    4.0865 H   0  0  0  0  0  0  0  0  0  0  0  0
    1.6012   25.8890    5.2595 H   0  0  0  0  0  0  0  0  0  0  0  0
   -2.2244   25.3890    3.9250 H   0  0  0  0  0  0  0  0  0  0  0  0
   -1.0843   24.7594    5.2391 H   0  0  0  0  0  0  0  0  0  0  0  0
   -2.1807   24.5614    4.9168 H   0  0  0  0  0  0  0  0  0  0  0  0
   -2.6793   24.3553    4.9079 H   0  0  0  0  0  0  0  0  0  0  0  0
   -3.5262   23.7307    5.2180 H   0  0  0  0  0  0  0  0  0  0  0  0
   -4.6495   20.8815    8.0241 H   0  0  0  0  0  0  0  0  0  0  0  0
   -5.7875   21.8616    6.2846 H   0  0  0  0  0  0  0  0  0  0  0  0
   -5.3734   22.9955    5.1511 H   0  0  0  0  0  0  0  0  0  0  0  0
   -3.4170   23.9399    5.0255 H   0  0  0  0  0  0  0  0  0  0  0  0
   -6.0539   22.2951    5.6355 H   0  0  0  0  0  0  0  0  0  0  0  0
   -6.1561   20.5075    6.7729 H   0  0  0  0  0  0  0  0  0  0  0  0
   -4.5594   23.0011    6.4595 H   0  0  0  0  0  0  0  0  0  0  0  0
   -6.4741   19.6465    8.5610 H   0  0  0  0  0  0  0  0  0  0  0  0
   -4.8593   18.4563   10.7917 H   0  0  0  0  0  0  0  0  0  0  0  0
   -2.1664   19.2213   11.2529 H   0  0  0  0  0  0  0  0  0  0  0  0
   -1.7113   19.8982   10.6818 H   0  0  0  0  0  0  0  0  0  0  0  0
   -0.2045   20.2234   11.0617 H   0  0  0  0  0  0  0  0  0  0  0  0
    1.7657   22.1843    9.7384 H   0  0  0  0  0  0  0  0  0  0  0  0
    3.6798   22.7174   10.0787 H   0  0  0  0  0  0  0  0  0  0  0  0
    3.4882   21.3940   11.5497 H   0  0  0  0  0  0  0  0  0  0  0  0
    2.8859   23.0130    9.3253 H   0  0  0  0  0  0  0  0  0  0  0  0
    3.3395   23.7452    8.6878 H   0  0  0  0  0  0  0  0  0  0  0  0
    2.8921   24.5984    7.4494 H   0  0  0  0  0  0  0  0  0  0  0  0
  1  2  1  0
  2  3  1  0
  3  4  1  0
  4  5  1  0
  5  6  1  0
  5  7  1  0
  7  8  1  0
  8  9  1  0
  9 10  1  0
 10 11  1  0
 11 12  1  0
 10 13  1  0
 13 14  2  0
 14 15  1  0
 14 16  1  0
 16 17  2  0
 17 18  1  0
 18 19  2  0
 19 20  1  0
 20 21  1  0
 21 22  1  0
 22 23  1  0
 23 24  1  0
 24 25  1  0
 25 26  1  0
 26 27  1  0
 27 28  1  0
 26  7  1  0
 27  7  1  0
 12 10  1  0
 19 13  1  0
 24 21  1  0
 27 25  1  0
  1 29  1  0
  1 30  1  0
  1 31  1  0
  2 32  1  0
  2 33  1  0
  3 34  1  0
  4 35  1  0
  4 36  1  0
  5 37  1  0
  6 38  1  0
  8 39  1  0
  8 40  1  0
  9 41  1  0
  9 42  1  0
 11 43  1  0
 11 44  1  0
 12 45  1  0
 12 46  1  0
 15 47  1  0
 15 48  1  0
 15 49  1  0
 16 50  1  0
 17 51  1  0
 18 52  1  0
 20 53  1  0
 20 54  1  0
 21 55  1  0
 23 56  1  0
 23 57  1  0
 24 58  1  0
 25 59  1  0
 26 60  1  0
M  END
