
     RDKit          2D

 41 44  0  0  0  0  0  0  0  0999 V2000
   16.2476  -16.5815  -16.1006 C   0  0  0  0  0  0  0  0  0  0  0  0
   16.5742  -18.0344  -15.9208 C   0  0  0  0  0  0  0  0  0  0  0  0
   16.9008  -19.4873  -15.7412 C   0  0  0  0  0  0  0  0  0  0  0  0
   16.8946  -19.3046  -14.2523 C   0  0  0  0  0  0  0  0  0  0  0  0
   16.8883  -19.1218  -12.7635 C   0  0  0  0  0  0  0  0  0  0  0  0
   16.8153  -18.6408  -11.3446 C   0  0  0  0  0  0  0  0  0  0  0  0
   17.0914  -19.8084  -10.4445 C   0  0  0  0  0  0  0  0  0  0  0  0
   17.3351  -21.0112  -11.3070 C   0  0  0  0  0  0  0  0  0  0  0  0
   17.5055  -21.6497   -9.9606 C   0  0  0  0  0  0  0  0  0  0  0  0
   17.6322  -22.4137  -11.7483 C   0  0  0  0  0  0  0  0  0  0  0  0
   17.9292  -23.8162  -12.1897 C   0  0  0  0  0  0  0  0  0  0  0  0
   18.2263  -25.2187  -12.6309 Br  0  0  0  0  0  0  0  0  0  0  0  0
   17.5067  -21.9893  -13.1816 C   0  0  0  0  0  0  0  0  0  0  0  0
   17.2096  -20.5868  -12.7403 C   0  0  0  0  0  0  0  0  0  0  0  0
   16.9070  -19.6701  -17.2299 C   0  0  0  0  0  0  0  0  0  0  0  0
   16.7491  -19.1019  -18.6091 O   0  0  0  0  0  0  0  0  0  0  0  0
   16.5804  -18.2171  -17.4097 C   0  0  0  0  0  0  0  0  0  0  0  0
   16.2666  -16.8610  -17.9686 O   0  0  0  0  0  0  0  0  0  0  0  0
   15.9210  -15.1285  -16.2803 H   0  0  0  0  0  0  0  0  0  0  0  0
   16.2001  -16.4671  -17.0769 H   0  0  0  0  0  0  0  0  0  0  0  0
   16.2409  -16.3988  -14.6118 H   0  0  0  0  0  0  0  0  0  0  0  0
   16.5470  -17.8227  -15.0613 H   0  0  0  0  0  0  0  0  0  0  0  0
   17.2273  -20.9403  -15.5614 H   0  0  0  0  0  0  0  0  0  0  0  0
   17.2152  -20.7699  -14.2553 H   0  0  0  0  0  0  0  0  0  0  0  0
   16.7052  -18.4393  -14.2505 H   0  0  0  0  0  0  0  0  0  0  0  0
   16.5683  -17.6950  -13.0980 H   0  0  0  0  0  0  0  0  0  0  0  0
   16.5105  -17.3145  -11.9757 H   0  0  0  0  0  0  0  0  0  0  0  0
   16.6784  -17.8825  -10.0576 H   0  0  0  0  0  0  0  0  0  0  0  0
   16.8968  -18.8060   -9.3457 H   0  0  0  0  0  0  0  0  0  0  0  0
   17.2013  -20.2421   -9.7847 H   0  0  0  0  0  0  0  0  0  0  0  0
   17.6759  -22.2883   -8.6140 H   0  0  0  0  0  0  0  0  0  0  0  0
   17.7867  -23.0391  -10.4513 H   0  0  0  0  0  0  0  0  0  0  0  0
   17.3782  -20.9941   -9.5252 H   0  0  0  0  0  0  0  0  0  0  0  0
   17.7929  -23.0058  -10.3796 H   0  0  0  0  0  0  0  0  0  0  0  0
   18.0527  -24.2410  -10.7564 H   0  0  0  0  0  0  0  0  0  0  0  0
   17.8429  -23.5655  -13.6660 H   0  0  0  0  0  0  0  0  0  0  0  0
   17.3812  -21.5649  -14.6148 H   0  0  0  0  0  0  0  0  0  0  0  0
   17.7863  -23.3296  -13.7943 H   0  0  0  0  0  0  0  0  0  0  0  0
   17.1709  -20.5655  -14.2396 H   0  0  0  0  0  0  0  0  0  0  0  0
   17.2240  -21.1208  -17.4417 H   0  0  0  0  0  0  0  0  0  0  0  0
   16.1880  -16.6614  -19.4532 H   0  0  0  0  0  0  0  0  0  0  0  0
  1  2  1  0
  2  3  1  0
  3  4  1  0
  4  5  1  0
  5  6  1  0
  6  7  1  0
  7  8  1  0
  8  9  1  0
  8 10  1  0
 10 11  1  0
 11 12  1  0
 10 13  1  0
 13 14  1  0
  3 15  1  0
 15 16  1  0
 16 17  1  0
 17 18  1  0
 17  2  1  0
 14  5  1  0
 17 15  1  0
 14  8  1  0
  1 19  1  0
  1 20  1  0
  1 21  1  0
  2 22  1  0
  3 23  1  0
  4 24  1  0
  4 25  1  0
  5 26  1  0
  6 27  1  0
  6 28  1  0
  7 29  1  0
  7 30  1  0
  9 31  1  0
  9 32  1  0
  9 33  1  0
 10 34  1  0
 11 35  1  0
 11 36  1  0
 13 37  1  0
 13 38  1  0
 14 39  1  0
 15 40  1  0
 18 41  1  0
M  END
