
     RDKit          2D

 86 91  0  0  0  0  0  0  0  0999 V2000
   -0.5363   14.7148   11.5147 C   0  0  0  0  0  0  0  0  0  0  0  0
    0.3800   15.6216   10.7478 C   0  0  0  0  0  0  0  0  0  0  0  0
    1.2962   16.5284    9.9808 C   0  0  0  0  0  0  0  0  0  0  0  0
    2.2125   17.4351    9.2139 C   0  0  0  0  0  0  0  0  0  0  0  0
    3.6518   17.0590    9.0219 O   0  0  0  0  0  0  0  0  0  0  0  0
    1.6895   18.7181    8.6390 P   0  0  0  0  0  0  0  0  0  0  0  0
    0.3579   19.4085    8.6239 C   0  0  0  0  0  0  0  0  0  0  0  0
   -0.2339   18.2847    9.4218 C   0  0  0  0  0  0  0  0  0  0  0  0
    0.9498   20.5324    7.8260 C   0  0  0  0  0  0  0  0  0  0  0  0
    0.5823   21.8416    7.1927 C   0  0  0  0  0  0  0  0  0  0  0  0
   -0.7970   22.4285    7.2491 N   0  0  0  0  0  0  0  0  0  0  0  0
   -0.7761   23.7333    6.5095 C   0  0  0  0  0  0  0  0  0  0  0  0
    0.6161   23.9527    5.9959 C   0  0  0  0  0  0  0  0  0  0  0  0
    0.0425   25.2233    5.4420 P   0  0  0  0  0  0  0  0  0  0  0  0
   -1.4044   25.5519    5.6628 C   0  0  0  0  0  0  0  0  0  0  0  0
    0.9158   26.1653    4.6675 C   0  0  0  0  0  0  0  0  0  0  0  0
    0.3423   27.4359    4.1137 C   0  0  0  0  0  0  0  0  0  0  0  0
   -0.2313   28.7065    3.5599 C   0  0  0  0  0  0  0  0  0  0  0  0
    0.3103   29.8554    2.7619 C   0  0  0  0  0  0  0  0  0  0  0  0
   -1.0424   30.5033    2.7767 C   0  0  0  0  0  0  0  0  0  0  0  0
   -0.5007   31.6522    1.9787 N   0  0  0  0  0  0  0  0  0  0  0  0
   -2.3952   31.1513    2.7914 C   0  0  0  0  0  0  0  0  0  0  0  0
   -2.6140   32.4469    2.0679 O   0  0  0  0  0  0  0  0  0  0  0  0
   -3.5290   30.5037    3.5296 O   0  0  0  0  0  0  0  0  0  0  0  0
   -4.8817   31.1516    3.5443 O   0  0  0  0  0  0  0  0  0  0  0  0
   -1.5840   29.3544    3.5746 C   0  0  0  0  0  0  0  0  0  0  0  0
    1.4555   22.7836    6.4181 C   0  0  0  0  0  0  0  0  0  0  0  0
    2.9120   22.6491    6.0855 C   0  0  0  0  0  0  0  0  0  0  0  0
    3.8549   21.5393    6.4454 C   0  0  0  0  0  0  0  0  0  0  0  0
    3.5742   20.2901    7.2266 C   0  0  0  0  0  0  0  0  0  0  0  0
    2.2813   19.8419    7.8411 P   0  0  0  0  0  0  0  0  0  0  0  0
    4.0903   23.2771    5.4021 C   0  0  0  0  0  0  0  0  0  0  0  0
    4.6822   24.4010    4.6041 C   0  0  0  0  0  0  0  0  0  0  0  0
    5.2740   25.5248    3.8062 C   0  0  0  0  0  0  0  0  0  0  0  0
    5.8658   26.6487    3.0082 F   0  0  0  0  0  0  0  0  0  0  0  0
    3.3506   25.0915    4.5890 C   0  0  0  0  0  0  0  0  0  0  0  0
    2.0191   25.7819    4.5739 C   0  0  0  0  0  0  0  0  0  0  0  0
    0.6875   26.4724    4.5588 C   0  0  0  0  0  0  0  0  0  0  0  0
    2.6693   27.0241    4.0407 C   0  0  0  0  0  0  0  0  0  0  0  0
    2.7588   23.9676    5.3869 C   0  0  0  0  0  0  0  0  0  0  0  0
   -1.4526   13.8080   12.2817 H   0  0  0  0  0  0  0  0  0  0  0  0
   -1.6694   15.6724   11.2933 H   0  0  0  0  0  0  0  0  0  0  0  0
    0.5969   13.7572   11.7362 H   0  0  0  0  0  0  0  0  0  0  0  0
   -0.8518   16.4704   10.6373 H   0  0  0  0  0  0  0  0  0  0  0  0
    1.5085   14.6550   10.9533 H   0  0  0  0  0  0  0  0  0  0  0  0
    2.4296   15.5712   10.2032 H   0  0  0  0  0  0  0  0  0  0  0  0
    0.1629   17.4855    9.7585 H   0  0  0  0  0  0  0  0  0  0  0  0
   -0.9736   20.0990    8.6088 H   0  0  0  0  0  0  0  0  0  0  0  0
   -0.9673   17.2727   10.2512 H   0  0  0  0  0  0  0  0  0  0  0  0
   -1.4320   19.1335    9.7286 H   0  0  0  0  0  0  0  0  0  0  0  0
    0.9642   17.4359    9.1150 H   0  0  0  0  0  0  0  0  0  0  0  0
   -0.5025   20.8129    8.0752 H   0  0  0  0  0  0  0  0  0  0  0  0
    1.9981   21.3628    7.0651 H   0  0  0  0  0  0  0  0  0  0  0  0
   -1.9879   21.8179    7.9264 H   0  0  0  0  0  0  0  0  0  0  0  0
   -2.2272   23.7890    6.8849 H   0  0  0  0  0  0  0  0  0  0  0  0
   -1.3961   24.9907    5.9761 H   0  0  0  0  0  0  0  0  0  0  0  0
    1.7922   24.5837    5.3114 H   0  0  0  0  0  0  0  0  0  0  0  0
   -2.8511   25.8804    5.8835 H   0  0  0  0  0  0  0  0  0  0  0  0
   -1.4094   26.8587    4.9265 H   0  0  0  0  0  0  0  0  0  0  0  0
   -1.5768   24.2755    6.4317 H   0  0  0  0  0  0  0  0  0  0  0  0
    2.3616   26.1557    4.2677 H   0  0  0  0  0  0  0  0  0  0  0  0
    1.0129   30.9167    1.9682 H   0  0  0  0  0  0  0  0  0  0  0  0
    1.6631   29.2074    2.7472 H   0  0  0  0  0  0  0  0  0  0  0  0
   -1.4102   32.7689    1.5593 H   0  0  0  0  0  0  0  0  0  0  0  0
    0.9136   31.8436    1.5173 H   0  0  0  0  0  0  0  0  0  0  0  0
   -6.0155   30.5040    4.2826 H   0  0  0  0  0  0  0  0  0  0  0  0
   -2.1256   28.2055    4.3726 H   0  0  0  0  0  0  0  0  0  0  0  0
   -3.0276   29.7052    3.7819 H   0  0  0  0  0  0  0  0  0  0  0  0
    1.9428   23.9574    5.6214 H   0  0  0  0  0  0  0  0  0  0  0  0
    4.8639   22.3618    5.7000 H   0  0  0  0  0  0  0  0  0  0  0  0
    5.2487   20.9910    6.3631 H   0  0  0  0  0  0  0  0  0  0  0  0
    5.0252   19.9967    6.9850 H   0  0  0  0  0  0  0  0  0  0  0  0
    3.9417   18.9809    7.8599 H   0  0  0  0  0  0  0  0  0  0  0  0
    5.3266   22.4370    5.5280 H   0  0  0  0  0  0  0  0  0  0  0  0
    6.0137   23.7105    4.6192 H   0  0  0  0  0  0  0  0  0  0  0  0
    6.5324   25.4386    4.6180 H   0  0  0  0  0  0  0  0  0  0  0  0
    4.0972   25.7475    2.9031 H   0  0  0  0  0  0  0  0  0  0  0  0
    3.7758   26.2911    3.7952 H   0  0  0  0  0  0  0  0  0  0  0  0
    1.3689   24.5398    5.1071 H   0  0  0  0  0  0  0  0  0  0  0  0
   -0.5553   27.3080    4.4755 H   0  0  0  0  0  0  0  0  0  0  0  0
    0.9917   27.8356    4.0117 H   0  0  0  0  0  0  0  0  0  0  0  0
   -0.2611   25.4435    5.0985 H   0  0  0  0  0  0  0  0  0  0  0  0
    3.3194   28.2662    3.5074 H   0  0  0  0  0  0  0  0  0  0  0  0
    1.5328   27.8024    3.4469 H   0  0  0  0  0  0  0  0  0  0  0  0
    1.3358   27.5165    3.5617 H   0  0  0  0  0  0  0  0  0  0  0  0
    1.3194   24.3437    5.5788 H   0  0  0  0  0  0  0  0  0  0  0  0
  1  2  1  0
  2  3  1  0
  3  4  1  0
  4  5  2  0
  4  6  1  0
  6  7  1  0
  7  8  1  0
  7  9  1  0
  9 10  1  0
 10 11  1  0
 11 12  1  0
 12 13  1  0
 13 14  1  0
 14 15  1  0
 14 16  1  0
 16 17  2  0
 17 18  2  0
 18 19  1  0
 19 20  1  0
 20 21  1  0
 20 22  1  0
 22 23  2  0
 22 24  1  0
 24 25  1  0
 20 26  1  0
 13 27  1  0
 27 28  1  0
 28 29  1  0
 29 30  1  0
 30 31  1  0
 28 32  1  0
 32 33  1  0
 33 34  1  0
 34 35  1  0
 33 36  1  0
 36 37  1  0
 37 38  1  0
 37 39  1  0
 36 40  1  0
 31  6  1  0
 40 32  1  0
 31  9  1  0
 27 10  1  0
 40 28  1  0
 26 18  1  0
  1 41  1  0
  1 42  1  0
  1 43  1  0
  2 44  1  0
  2 45  1  0
  3 46  1  0
  3 47  1  0
  7 48  1  0
  8 49  1  0
  8 50  1  0
  8 51  1  0
  9 52  1  0
 10 53  1  0
 11 54  1  0
 12 55  1  0
 12 56  1  0
 13 57  1  0
 15 58  1  0
 15 59  1  0
 15 60  1  0
 16 61  1  0
 19 62  1  0
 19 63  1  0
 21 64  1  0
 21 65  1  0
 25 66  1  0
 26 67  1  0
 26 68  1  0
 27 69  1  0
 29 70  1  0
 29 71  1  0
 30 72  1  0
 30 73  1  0
 32 74  1  0
 33 75  1  0
 34 76  1  0
 34 77  1  0
 36 78  1  0
 37 79  1  0
 38 80  1  0
 38 81  1  0
 38 82  1  0
 39 83  1  0
 39 84  1  0
 39 85  1  0
 40 86  1  0
M  END
