
     RDKit          2D

 57 61  0  0  0  0  0  0  0  0999 V2000
    4.6016   23.3408    3.1468 O   0  0  0  0  0  0  0  0  0  0  0  0
    4.3039   23.4717    4.6111 C   0  0  0  0  0  0  0  0  0  0  0  0
    2.8819   23.9449    4.5464 C   0  0  0  0  0  0  0  0  0  0  0  0
    1.4600   24.4180    4.4817 C   0  0  0  0  0  0  0  0  0  0  0  0
    0.0380   24.8912    4.4169 C   0  0  0  0  0  0  0  0  0  0  0  0
   -1.3158   25.3528    4.8686 C   0  0  0  0  0  0  0  0  0  0  0  0
   -0.2597   25.0222    5.8813 C   0  0  0  0  0  0  0  0  0  0  0  0
   -1.0155   25.3018    7.1464 C   0  0  0  0  0  0  0  0  0  0  0  0
   -2.0716   25.6324    6.1338 C   0  0  0  0  0  0  0  0  0  0  0  0
   -1.3158   25.3528    4.8686 C   0  0  0  0  0  0  0  0  0  0  0  0
   -1.5119   25.3861    3.3818 C   0  0  0  0  0  0  0  0  0  0  0  0
   -2.5680   25.7166    2.3692 C   0  0  0  0  0  0  0  0  0  0  0  0
   -3.9899   26.1898    2.3044 N   0  0  0  0  0  0  0  0  0  0  0  0
   -5.1123   26.5841    3.2180 C   0  0  0  0  0  0  0  0  0  0  0  0
   -5.4102   26.7152    4.6822 N   0  0  0  0  0  0  0  0  0  0  0  0
   -4.7440   26.5216    6.0122 C   0  0  0  0  0  0  0  0  0  0  0  0
   -3.4254   26.0939    6.5854 C   0  0  0  0  0  0  0  0  0  0  0  0
   -3.7233   26.2250    8.0497 C   0  0  0  0  0  0  0  0  0  0  0  0
   -2.6672   25.8944    9.0624 C   0  0  0  0  0  0  0  0  0  0  0  0
   -1.6111   25.5639   10.0750 C   0  0  0  0  0  0  0  0  0  0  0  0
   -1.3133   25.4328    8.6108 C   0  0  0  0  0  0  0  0  0  0  0  0
    5.6224   23.0441    5.1842 C   0  0  0  0  0  0  0  0  0  0  0  0
    4.5000   23.4384    6.0978 C   0  0  0  0  0  0  0  0  0  0  0  0
    5.9554   22.8792    2.6950 H   0  0  0  0  0  0  0  0  0  0  0  0
    2.8330   24.0029    6.0444 H   0  0  0  0  0  0  0  0  0  0  0  0
    2.7571   23.9450    3.0516 H   0  0  0  0  0  0  0  0  0  0  0  0
    1.5850   24.4186    5.9764 H   0  0  0  0  0  0  0  0  0  0  0  0
    1.5086   24.3594    2.9836 H   0  0  0  0  0  0  0  0  0  0  0  0
    0.0153   24.8664    2.9173 H   0  0  0  0  0  0  0  0  0  0  0  0
   -1.6580   25.4355    3.4105 H   0  0  0  0  0  0  0  0  0  0  0  0
   -2.6166   25.7998    5.4671 H   0  0  0  0  0  0  0  0  0  0  0  0
    0.9837   24.6232    6.6191 H   0  0  0  0  0  0  0  0  0  0  0  0
    0.3030   24.8741    7.7197 H   0  0  0  0  0  0  0  0  0  0  0  0
   -2.5093   25.7475    4.7037 H   0  0  0  0  0  0  0  0  0  0  0  0
   -0.1467   24.9813    5.7318 H   0  0  0  0  0  0  0  0  0  0  0  0
   -0.1037   24.9315    4.0918 H   0  0  0  0  0  0  0  0  0  0  0  0
   -0.0949   24.9104    3.2547 H   0  0  0  0  0  0  0  0  0  0  0  0
   -0.7491   25.1043    2.1214 H   0  0  0  0  0  0  0  0  0  0  0  0
   -1.4505   25.3238    1.4487 H   0  0  0  0  0  0  0  0  0  0  0  0
   -2.9262   25.8048    0.9153 H   0  0  0  0  0  0  0  0  0  0  0  0
   -4.4277   26.3050    0.8744 H   0  0  0  0  0  0  0  0  0  0  0  0
   -5.6282   26.7260    1.8166 H   0  0  0  0  0  0  0  0  0  0  0  0
   -6.5307   27.0599    3.3277 H   0  0  0  0  0  0  0  0  0  0  0  0
   -6.8196   27.1898    4.8787 H   0  0  0  0  0  0  0  0  0  0  0  0
   -6.1395   26.9934    6.2947 H   0  0  0  0  0  0  0  0  0  0  0  0
   -5.0498   26.6553    7.4746 H   0  0  0  0  0  0  0  0  0  0  0  0
   -2.5510   25.8278    7.7748 H   0  0  0  0  0  0  0  0  0  0  0  0
   -4.4790   26.5045    9.3149 H   0  0  0  0  0  0  0  0  0  0  0  0
   -5.0971   26.6748    7.6496 H   0  0  0  0  0  0  0  0  0  0  0  0
   -3.6207   26.2366   10.1685 H   0  0  0  0  0  0  0  0  0  0  0  0
   -2.3669   25.8434   11.3402 H   0  0  0  0  0  0  0  0  0  0  0  0
   -0.2926   25.1362   10.6483 H   0  0  0  0  0  0  0  0  0  0  0  0
    0.0780   24.9755    8.9347 H   0  0  0  0  0  0  0  0  0  0  0  0
    6.3781   22.7646    3.9190 H   0  0  0  0  0  0  0  0  0  0  0  0
    6.6785   22.7135    6.1968 H   0  0  0  0  0  0  0  0  0  0  0  0
    5.1663   23.2448    7.4277 H   0  0  0  0  0  0  0  0  0  0  0  0
    3.2096   23.8825    6.7205 H   0  0  0  0  0  0  0  0  0  0  0  0
  1  2  1  0
  2  3  1  0
  3  4  1  0
  4  5  1  0
  5  6  1  0
  6  7  1  0
  7  8  1  0
  8  9  1  0
  9 10  1  0
 10 11  1  0
 11 12  1  0
 12 13  1  0
 13 14  1  0
 14 15  1  0
 15 16  1  0
 16 17  1  0
 17 18  1  0
 18 19  1  0
 19 20  1  0
 20 21  1  0
  2 22  1  0
 22 23  1  0
 23  2  1  0
  7  5  1  0
 21  8  1  0
 17  9  1  0
 21 19  1  0
  1 24  1  0
  3 25  1  0
  3 26  1  0
  4 27  1  0
  4 28  1  0
  5 29  1  0
  6 30  1  0
  6 31  1  0
  7 32  1  0
  8 33  1  0
  9 34  1  0
 10 35  1  0
 10 36  1  0
 11 37  1  0
 11 38  1  0
 12 39  1  0
 12 40  1  0
 13 41  1  0
 14 42  1  0
 14 43  1  0
 15 44  1  0
 16 45  1  0
 16 46  1  0
 17 47  1  0
 18 48  1  0
 18 49  1  0
 19 50  1  0
 20 51  1  0
 20 52  1  0
 21 53  1  0
 22 54  1  0
 22 55  1  0
 23 56  1  0
 23 57  1  0
M  END
