
     RDKit          2D

 36 41  0  0  0  0  0  0  0  0999 V2000
    6.3183   26.4297    4.4629 C   0  0  0  0  0  0  0  0  0  0  0  0
    5.6226   25.1329    4.1725 C   0  0  0  0  0  0  0  0  0  0  0  0
    4.1346   25.0282    4.3306 C   0  0  0  0  0  0  0  0  0  0  0  0
    3.9312   23.5949    3.9380 C   0  0  0  0  0  0  0  0  0  0  0  0
    2.7556   24.4383    4.3332 C   0  0  0  0  0  0  0  0  0  0  0  0
    1.9632   25.6305    4.7817 C   0  0  0  0  0  0  0  0  0  0  0  0
    0.5840   25.0406    4.7843 C   0  0  0  0  0  0  0  0  0  0  0  0
   -0.5917   25.8841    5.1795 N   0  0  0  0  0  0  0  0  0  0  0  0
   -1.8904   26.5441    5.5368 C   0  0  0  0  0  0  0  0  0  0  0  0
   -3.3599   26.2615    5.6406 C   0  0  0  0  0  0  0  0  0  0  0  0
   -3.6003   27.6743    6.0835 C   0  0  0  0  0  0  0  0  0  0  0  0
   -3.0738   29.0391    6.4151 C   0  0  0  0  0  0  0  0  0  0  0  0
   -2.1308   27.9569    5.9797 C   0  0  0  0  0  0  0  0  0  0  0  0
   -1.1319   29.0587    6.1746 N   0  0  0  0  0  0  0  0  0  0  0  0
    0.3543   29.0197    5.9749 C   0  0  0  0  0  0  0  0  0  0  0  0
    1.2085   27.8695    5.5309 N   0  0  0  0  0  0  0  0  0  0  0  0
    0.7874   26.4739    5.1769 C   0  0  0  0  0  0  0  0  0  0  0  0
    7.8063   26.5344    4.3049 H   0  0  0  0  0  0  0  0  0  0  0  0
    5.5260   27.6218    4.9113 H   0  0  0  0  0  0  0  0  0  0  0  0
    6.4150   23.9408    3.7241 H   0  0  0  0  0  0  0  0  0  0  0  0
    4.0011   26.4577    4.7648 H   0  0  0  0  0  0  0  0  0  0  0  0
    3.2356   22.2981    3.6476 H   0  0  0  0  0  0  0  0  0  0  0  0
    5.3485   23.2017    3.6436 H   0  0  0  0  0  0  0  0  0  0  0  0
    1.6515   23.4344    4.1801 H   0  0  0  0  0  0  0  0  0  0  0  0
    2.9371   26.7528    4.9858 H   0  0  0  0  0  0  0  0  0  0  0  0
    0.3806   23.6073    4.3917 H   0  0  0  0  0  0  0  0  0  0  0  0
   -2.1489   25.1172    5.1531 H   0  0  0  0  0  0  0  0  0  0  0  0
   -4.8294   25.9789    5.7444 H   0  0  0  0  0  0  0  0  0  0  0  0
   -3.1195   24.8487    5.1977 H   0  0  0  0  0  0  0  0  0  0  0  0
   -5.0820   27.7670    6.2983 H   0  0  0  0  0  0  0  0  0  0  0  0
   -4.3540   29.7308    6.7793 H   0  0  0  0  0  0  0  0  0  0  0  0
   -2.4044   30.0322    6.6201 H   0  0  0  0  0  0  0  0  0  0  0  0
   -1.4469   30.1738    6.5401 H   0  0  0  0  0  0  0  0  0  0  0  0
    0.1139   30.4326    6.4178 H   0  0  0  0  0  0  0  0  0  0  0  0
    1.7334   29.6096    5.9723 H   0  0  0  0  0  0  0  0  0  0  0  0
    2.6780   28.1520    5.4271 H   0  0  0  0  0  0  0  0  0  0  0  0
  1  2  2  3
  2  3  1  0
  3  4  1  0
  4  5  1  0
  5  6  1  0
  6  7  1  0
  7  8  1  0
  8  9  1  0
  9 10  1  0
 10 11  1  0
 11 12  1  0
 12 13  1  0
 13 14  1  0
 14 15  1  0
 15 16  1  0
 16 17  1  0
  5  3  1  0
 17  6  1  0
 17  7  1  0
 17  8  1  0
 13  9  1  0
 13 11  1  0
  1 18  1  0
  1 19  1  0
  2 20  1  0
  3 21  1  0
  4 22  1  0
  4 23  1  0
  5 24  1  0
  6 25  1  0
  7 26  1  0
  9 27  1  0
 10 28  1  0
 10 29  1  0
 11 30  1  0
 12 31  1  0
 12 32  1  0
 14 33  1  0
 15 34  1  0
 15 35  1  0
 16 36  1  0
M  END
