
     RDKit          2D

 84 92  0  0  0  0  0  0  0  0999 V2000
   -8.1296   22.4186    8.2867 C   0  0  0  0  0  0  0  0  0  0  0  0
   -8.1125   23.8962    8.0289 C   0  0  0  0  0  0  0  0  0  0  0  0
   -8.0953   25.3737    7.7711 C   0  0  0  0  0  0  0  0  0  0  0  0
   -8.0782   26.8513    7.5132 C   0  0  0  0  0  0  0  0  0  0  0  0
   -8.0611   28.3288    7.2553 N   0  0  0  0  0  0  0  0  0  0  0  0
   -8.7751   29.6470    7.2050 C   0  0  0  0  0  0  0  0  0  0  0  0
   -7.3175   29.5699    6.8591 C   0  0  0  0  0  0  0  0  0  0  0  0
   -5.9538   28.9920    6.6223 N   0  0  0  0  0  0  0  0  0  0  0  0
   -4.8262   29.8826    6.1916 C   0  0  0  0  0  0  0  0  0  0  0  0
   -3.6987   30.7733    5.7610 C   0  0  0  0  0  0  0  0  0  0  0  0
   -2.7879   31.8900    5.3449 C   0  0  0  0  0  0  0  0  0  0  0  0
   -1.4241   31.3121    5.1081 C   0  0  0  0  0  0  0  0  0  0  0  0
   -1.4920   29.8382    5.3778 Sb  0  0  0  0  0  3  0  0  0  0  0  0
   -0.3540   28.8676    5.2640 C   0  0  0  0  0  0  0  0  0  0  0  0
    0.7840   27.8971    5.1502 C   0  0  0  0  0  0  0  0  0  0  0  0
    1.9221   26.9266    5.0364 C   0  0  0  0  0  0  0  0  0  0  0  0
    3.0167   27.8579    4.6068 C   0  0  0  0  0  0  0  0  0  0  0  0
    4.2875   28.5298    4.1784 B   0  0  0  0  0  0  0  0  0  0  0  0
    4.4568   29.9912    3.8858 C   0  0  0  0  0  0  0  0  0  0  0  0
    4.6262   31.4526    3.5933 C   0  0  0  0  0  0  0  0  0  0  0  0
    4.7956   32.9141    3.3007 C   0  0  0  0  0  0  0  0  0  0  0  0
    6.2609   32.9479    2.9821 C   0  0  0  0  0  0  0  0  0  0  0  0
    4.4559   34.3637    3.1188 C   0  0  0  0  0  0  0  0  0  0  0  0
    3.3890   33.3878    3.5177 O   0  0  0  0  0  0  0  0  0  0  0  0
    5.3592   27.4837    4.0939 O   0  0  0  0  0  0  0  0  0  0  0  0
    4.7507   26.1653    4.4701 C   0  0  0  0  0  0  0  0  0  0  0  0
    3.3030   26.3966    4.7871 C   0  0  0  0  0  0  0  0  0  0  0  0
    6.1542   25.7084    4.2028 C   0  0  0  0  0  0  0  0  0  0  0  0
    6.7790   23.2017    4.4791 C   0  0  0  0  0  0  0  0  0  0  0  0
    5.3668   22.8939    4.8799 C   0  0  0  0  0  0  0  0  0  0  0  0
    3.9633   23.3508    5.1472 C   0  0  0  0  0  0  0  0  0  0  0  0
    2.5599   23.8079    5.4145 C   0  0  0  0  0  0  0  0  0  0  0  0
    3.5696   21.9436    5.4858 C   0  0  0  0  0  0  0  0  0  0  0  0
    4.3571   24.7581    4.8087 C   0  0  0  0  0  0  0  0  0  0  0  0
    5.7605   24.3011    4.5413 C   0  0  0  0  0  0  0  0  0  0  0  0
   -2.8978   29.5051    5.7813 C   0  0  0  0  0  0  0  0  0  0  0  0
   -8.1468   20.9410    8.5443 H   0  0  0  0  0  0  0  0  0  0  0  0
   -8.4948   22.1727    6.8527 H   0  0  0  0  0  0  0  0  0  0  0  0
   -7.7645   22.6644    9.7207 H   0  0  0  0  0  0  0  0  0  0  0  0
   -8.4763   23.6501    6.5947 H   0  0  0  0  0  0  0  0  0  0  0  0
   -7.7487   24.1421    9.4631 H   0  0  0  0  0  0  0  0  0  0  0  0
   -7.7355   25.6201    9.2063 H   0  0  0  0  0  0  0  0  0  0  0  0
   -8.4552   25.1274    6.3359 H   0  0  0  0  0  0  0  0  0  0  0  0
   -7.7156   27.0975    8.9477 H   0  0  0  0  0  0  0  0  0  0  0  0
   -8.4408   26.6051    6.0787 H   0  0  0  0  0  0  0  0  0  0  0  0
   -9.0114   31.1156    7.0111 H   0  0  0  0  0  0  0  0  0  0  0  0
  -10.1506   29.2142    7.6182 H   0  0  0  0  0  0  0  0  0  0  0  0
   -7.0477   31.0116    6.5452 H   0  0  0  0  0  0  0  0  0  0  0  0
   -5.7175   27.5235    6.8162 H   0  0  0  0  0  0  0  0  0  0  0  0
   -5.7502   31.0640    6.2157 H   0  0  0  0  0  0  0  0  0  0  0  0
   -4.0466   28.6015    6.2202 H   0  0  0  0  0  0  0  0  0  0  0  0
   -4.7353   31.8552    5.8306 H   0  0  0  0  0  0  0  0  0  0  0  0
   -4.0149   32.7385    5.5015 H   0  0  0  0  0  0  0  0  0  0  0  0
   -2.1336   33.1842    4.9615 H   0  0  0  0  0  0  0  0  0  0  0  0
   -1.0549   32.7271    4.7742 H   0  0  0  0  0  0  0  0  0  0  0  0
    0.0168   31.0300    4.8015 H   0  0  0  0  0  0  0  0  0  0  0  0
    0.5568   29.9845    4.8479 H   0  0  0  0  0  0  0  0  0  0  0  0
   -1.2648   27.7508    5.6800 H   0  0  0  0  0  0  0  0  0  0  0  0
   -0.1261   26.7807    5.5688 H   0  0  0  0  0  0  0  0  0  0  0  0
    1.4723   29.0008    4.7887 H   0  0  0  0  0  0  0  0  0  0  0  0
    1.2227   25.6582    5.4264 H   0  0  0  0  0  0  0  0  0  0  0  0
    2.3942   29.0547    4.5548 H   0  0  0  0  0  0  0  0  0  0  0  0
    3.0081   30.2218    4.1990 H   0  0  0  0  0  0  0  0  0  0  0  0
    5.9055   29.7607    3.5727 H   0  0  0  0  0  0  0  0  0  0  0  0
    5.7855   31.1319    3.4217 H   0  0  0  0  0  0  0  0  0  0  0  0
    3.1634   31.6721    3.8426 H   0  0  0  0  0  0  0  0  0  0  0  0
    7.7262   32.9818    2.6634 H   0  0  0  0  0  0  0  0  0  0  0  0
    6.5006   31.6327    3.1701 H   0  0  0  0  0  0  0  0  0  0  0  0
    6.3346   34.1383    2.7500 H   0  0  0  0  0  0  0  0  0  0  0  0
    5.5957   34.9948    2.7649 H   0  0  0  0  0  0  0  0  0  0  0  0
    3.6484   35.6269    3.0695 H   0  0  0  0  0  0  0  0  0  0  0  0
    2.8122   25.0246    5.1435 H   0  0  0  0  0  0  0  0  0  0  0  0
    7.4250   26.3803    3.7743 H   0  0  0  0  0  0  0  0  0  0  0  0
    8.1825   22.7447    4.2117 H   0  0  0  0  0  0  0  0  0  0  0  0
    5.5275   21.4179    5.0936 H   0  0  0  0  0  0  0  0  0  0  0  0
    1.1564   24.2648    5.6819 H   0  0  0  0  0  0  0  0  0  0  0  0
    2.1760   23.1407    5.6220 H   0  0  0  0  0  0  0  0  0  0  0  0
    2.3502   23.0597    5.5930 H   0  0  0  0  0  0  0  0  0  0  0  0
    3.1758   20.5363    5.8243 H   0  0  0  0  0  0  0  0  0  0  0  0
    2.1096   22.0444    5.8148 H   0  0  0  0  0  0  0  0  0  0  0  0
    4.9176   21.3206    5.2742 H   0  0  0  0  0  0  0  0  0  0  0  0
    2.9161   25.0401    5.1153 H   0  0  0  0  0  0  0  0  0  0  0  0
   -2.3676   28.1061    5.8908 H   0  0  0  0  0  0  0  0  0  0  0  0
   -4.1015   28.7208    6.2125 H   0  0  0  0  0  0  0  0  0  0  0  0
  1  2  1  0
  2  3  1  0
  3  4  1  0
  4  5  1  0
  5  6  1  0
  6  7  1  0
  7  8  1  0
  8  9  1  0
  9 10  1  0
 10 11  1  0
 11 12  1  0
 12 13  1  0
 13 14  1  0
 14 15  1  0
 15 16  1  0
 16 17  1  0
 17 18  1  0
 18 19  1  0
 19 20  1  0
 20 21  1  0
 21 22  1  0
 21 23  1  0
 23 24  1  0
 18 25  1  0
 25 26  1  0
 26 27  1  0
 26 28  1  0
 28 29  1  0
 29 30  1  0
 30 31  1  0
 31 32  1  0
 31 33  1  0
 31 34  1  0
 34 35  1  0
 13 36  1  0
  7  5  1  0
 36 10  1  0
 27 16  1  0
 35 28  1  0
 27 17  1  0
 35 29  1  0
 24 21  1  0
 34 26  1  0
 35 30  1  0
  1 37  1  0
  1 38  1  0
  1 39  1  0
  2 40  1  0
  2 41  1  0
  3 42  1  0
  3 43  1  0
  4 44  1  0
  4 45  1  0
  6 46  1  0
  6 47  1  0
  7 48  1  0
  8 49  1  0
  9 50  1  0
  9 51  1  0
 10 52  1  0
 11 53  1  0
 11 54  1  0
 12 55  1  0
 12 56  1  0
 14 57  1  0
 14 58  1  0
 15 59  1  0
 15 60  1  0
 16 61  1  0
 17 62  1  0
 19 63  1  0
 19 64  1  0
 20 65  1  0
 20 66  1  0
 22 67  1  0
 22 68  1  0
 22 69  1  0
 23 70  1  0
 23 71  1  0
 27 72  1  0
 28 73  1  0
 29 74  1  0
 30 75  1  0
 32 76  1  0
 32 77  1  0
 32 78  1  0
 33 79  1  0
 33 80  1  0
 33 81  1  0
 34 82  1  0
 36 83  1  0
 36 84  1  0
M  END
