
     RDKit          2D

 35 36  0  0  0  0  0  0  0  0999 V2000
    2.5172   26.3767    3.5462 C   0  0  0  0  0  0  0  0  0  0  0  0
    1.1774   26.4876    4.2116 C   0  0  0  0  0  0  0  0  0  0  0  0
   -0.1623   26.5985    4.8770 N   0  0  0  0  0  0  0  0  0  0  0  0
   -1.2571   27.3948    4.2309 C   0  0  0  0  0  0  0  0  0  0  0  0
   -0.4074   25.9130    6.1886 C   0  0  0  0  0  0  0  0  0  0  0  0
   -1.8130   26.4366    6.1996 C   0  0  0  0  0  0  0  0  0  0  0  0
   -3.2186   26.9602    6.2106 C   0  0  0  0  0  0  0  0  0  0  0  0
   -4.6232   27.2178    6.6696 C   0  0  0  0  0  0  0  0  0  0  0  0
   -3.7039   26.3761    7.5042 C   0  0  0  0  0  0  0  0  0  0  0  0
   -4.6189   26.0443    8.6455 C   0  0  0  0  0  0  0  0  0  0  0  0
   -5.5338   25.7125    9.7870 O   0  0  0  0  0  0  0  0  0  0  0  0
    0.9982   25.3894    6.1775 C   0  0  0  0  0  0  0  0  0  0  0  0
    2.2353   24.6630    6.6158 C   0  0  0  0  0  0  0  0  0  0  0  0
    1.0011   24.6235    7.4672 O   0  0  0  0  0  0  0  0  0  0  0  0
    3.8570   26.2659    2.8808 H   0  0  0  0  0  0  0  0  0  0  0  0
    2.3215   27.7289    2.9269 H   0  0  0  0  0  0  0  0  0  0  0  0
    2.7130   25.0247    4.1655 H   0  0  0  0  0  0  0  0  0  0  0  0
    1.8230   25.6127    5.2449 H   0  0  0  0  0  0  0  0  0  0  0  0
    0.6915   27.3555    3.0887 H   0  0  0  0  0  0  0  0  0  0  0  0
   -2.3518   28.1911    3.5848 H   0  0  0  0  0  0  0  0  0  0  0  0
   -0.3395   27.7333    3.0936 H   0  0  0  0  0  0  0  0  0  0  0  0
   -1.8119   27.2678    4.7890 H   0  0  0  0  0  0  0  0  0  0  0  0
   -0.6524   25.2276    7.5001 H   0  0  0  0  0  0  0  0  0  0  0  0
   -1.8849   25.6924    7.5000 H   0  0  0  0  0  0  0  0  0  0  0  0
   -1.9591   26.8764    5.5511 H   0  0  0  0  0  0  0  0  0  0  0  0
   -3.2213   27.7261    4.9210 H   0  0  0  0  0  0  0  0  0  0  0  0
   -5.1138   28.0732    5.5392 H   0  0  0  0  0  0  0  0  0  0  0  0
   -5.9355   27.2836    7.3932 H   0  0  0  0  0  0  0  0  0  0  0  0
   -2.5627   25.5984    8.0898 H   0  0  0  0  0  0  0  0  0  0  0  0
   -3.5251   25.2456    9.2903 H   0  0  0  0  0  0  0  0  0  0  0  0
   -5.8161   26.7966    8.1448 H   0  0  0  0  0  0  0  0  0  0  0  0
   -5.0433   24.8572   10.9172 H   0  0  0  0  0  0  0  0  0  0  0  0
    1.6436   25.8918    4.9201 H   0  0  0  0  0  0  0  0  0  0  0  0
    3.1503   24.9948    5.4743 H   0  0  0  0  0  0  0  0  0  0  0  0
    3.1546   23.8213    7.4503 H   0  0  0  0  0  0  0  0  0  0  0  0
  1  2  1  0
  2  3  1  0
  3  4  1  0
  3  5  1  0
  5  6  1  0
  6  7  1  0
  7  8  1  0
  8  9  1  0
  9 10  1  0
 10 11  1  0
  5 12  1  0
 12 13  1  0
 13 14  1  0
  9  7  1  0
 14 12  1  0
  1 15  1  0
  1 16  1  0
  1 17  1  0
  2 18  1  0
  2 19  1  0
  4 20  1  0
  4 21  1  0
  4 22  1  0
  5 23  1  0
  6 24  1  0
  6 25  1  0
  7 26  1  0
  8 27  1  0
  8 28  1  0
  9 29  1  0
 10 30  1  0
 10 31  1  0
 11 32  1  0
 12 33  1  0
 13 34  1  0
 13 35  1  0
M  END
