
     RDKit          2D

 71 79  0  0  0  0  0  0  0  0999 V2000
   21.6883  -24.5455   -8.4877 C   0  0  0  0  0  0  0  0  0  0  0  0
   21.1847  -24.1298   -7.1373 C   0  0  0  0  0  0  0  0  0  0  0  0
   20.6812  -23.7142   -5.7868 C   0  0  0  0  0  0  0  0  0  0  0  0
   19.5497  -22.1494   -6.3761 C   0  0  0  0  0  0  0  0  0  0  0  0
   19.3558  -21.6546   -7.7788 C   0  0  0  0  0  0  0  0  0  0  0  0
   19.7315  -21.8907   -9.2118 C   0  0  0  0  0  0  0  0  0  0  0  0
   19.5376  -21.3959  -10.6145 O   0  0  0  0  0  0  0  0  0  0  0  0
   18.6560  -20.2110  -10.8767 C   0  0  0  0  0  0  0  0  0  0  0  0
   17.7744  -19.0260  -11.1389 C   0  0  0  0  0  0  0  0  0  0  0  0
   18.1501  -19.2621  -12.5718 C   0  0  0  0  0  0  0  0  0  0  0  0
   17.4607  -18.2255  -13.4085 C   0  0  0  0  0  0  0  0  0  0  0  0
   16.6589  -17.3488  -12.4928 C   0  0  0  0  0  0  0  0  0  0  0  0
   15.9712  -16.6586  -11.3523 C   0  0  0  0  0  0  0  0  0  0  0  0
   16.8528  -17.8435  -11.0901 C   0  0  0  0  0  0  0  0  0  0  0  0
   17.8883  -18.8221  -13.1556 C   0  0  0  0  0  0  0  0  0  0  0  0
   18.7691  -19.8470  -13.8065 C   0  0  0  0  0  0  0  0  0  0  0  0
   18.9605  -19.8354  -15.2942 C   0  0  0  0  0  0  0  0  0  0  0  0
   19.8866  -21.0055  -15.4469 C   0  0  0  0  0  0  0  0  0  0  0  0
   18.8304  -19.4174  -16.7288 C   0  0  0  0  0  0  0  0  0  0  0  0
   18.0797  -18.8104  -14.6432 C   0  0  0  0  0  0  0  0  0  0  0  0
   20.5333  -22.7674  -10.1275 C   0  0  0  0  0  0  0  0  0  0  0  0
   21.4549  -23.9499  -10.1764 C   0  0  0  0  0  0  0  0  0  0  0  0
   22.1443  -24.9865   -9.3395 C   0  0  0  0  0  0  0  0  0  0  0  0
   22.3382  -25.4812   -7.9368 C   0  0  0  0  0  0  0  0  0  0  0  0
   21.9625  -25.2452   -6.5040 C   0  0  0  0  0  0  0  0  0  0  0  0
   21.4590  -24.8296   -5.1535 C   0  0  0  0  0  0  0  0  0  0  0  0
   20.9554  -24.4139   -3.8031 C   0  0  0  0  0  0  0  0  0  0  0  0
   21.1216  -23.2918  -11.4824 C   0  0  0  0  0  0  0  0  0  0  0  0
   21.9861  -24.2837  -12.2027 N   0  0  0  0  0  0  0  0  0  0  0  0
   22.3194  -24.9417  -10.8966 C   0  0  0  0  0  0  0  0  0  0  0  0
   21.9033  -24.6926   -9.2411 H   0  0  0  0  0  0  0  0  0  0  0  0
   22.5680  -25.7259   -8.1996 H   0  0  0  0  0  0  0  0  0  0  0  0
   20.9073  -23.4327   -9.1214 H   0  0  0  0  0  0  0  0  0  0  0  0
   20.4070  -23.0145   -7.7705 H   0  0  0  0  0  0  0  0  0  0  0  0
   19.7751  -22.6316   -5.2797 H   0  0  0  0  0  0  0  0  0  0  0  0
   18.6234  -20.9924   -6.1460 H   0  0  0  0  0  0  0  0  0  0  0  0
   19.1740  -21.9134   -4.9433 H   0  0  0  0  0  0  0  0  0  0  0  0
   18.5961  -20.5545   -8.4589 H   0  0  0  0  0  0  0  0  0  0  0  0
   18.5035  -20.6864   -7.0135 H   0  0  0  0  0  0  0  0  0  0  0  0
   18.8099  -20.7082   -9.1630 H   0  0  0  0  0  0  0  0  0  0  0  0
   18.2659  -19.9543   -9.4512 H   0  0  0  0  0  0  0  0  0  0  0  0
   19.0461  -20.4676  -12.3021 H   0  0  0  0  0  0  0  0  0  0  0  0
   17.5830  -19.0377   -9.6511 H   0  0  0  0  0  0  0  0  0  0  0  0
   18.9834  -20.4198  -12.1078 H   0  0  0  0  0  0  0  0  0  0  0  0
   16.8766  -17.2931  -14.4281 H   0  0  0  0  0  0  0  0  0  0  0  0
   16.1133  -16.4564  -13.5679 H   0  0  0  0  0  0  0  0  0  0  0  0
   15.2403  -15.5838  -12.1008 H   0  0  0  0  0  0  0  0  0  0  0  0
   15.5374  -16.3418   -9.9517 H   0  0  0  0  0  0  0  0  0  0  0  0
   17.2693  -18.2371  -11.9208 H   0  0  0  0  0  0  0  0  0  0  0  0
   20.8126  -22.1756  -15.5995 H   0  0  0  0  0  0  0  0  0  0  0  0
   20.0185  -20.9408  -16.9396 H   0  0  0  0  0  0  0  0  0  0  0  0
   19.8674  -21.2145  -13.9616 H   0  0  0  0  0  0  0  0  0  0  0  0
   18.7001  -18.9993  -18.1635 H   0  0  0  0  0  0  0  0  0  0  0  0
   19.7205  -20.4759  -17.3093 H   0  0  0  0  0  0  0  0  0  0  0  0
   17.9174  -18.2994  -16.3203 H   0  0  0  0  0  0  0  0  0  0  0  0
   20.6928  -22.7141  -11.6180 H   0  0  0  0  0  0  0  0  0  0  0  0
   19.9245  -21.8098  -11.1085 H   0  0  0  0  0  0  0  0  0  0  0  0
   23.0659  -26.1689   -9.3884 H   0  0  0  0  0  0  0  0  0  0  0  0
   22.7138  -25.4978  -10.6296 H   0  0  0  0  0  0  0  0  0  0  0  0
   23.0979  -26.5815   -7.2568 H   0  0  0  0  0  0  0  0  0  0  0  0
   23.1906  -26.4496   -8.7022 H   0  0  0  0  0  0  0  0  0  0  0  0
   22.8854  -26.3800   -6.8363 H   0  0  0  0  0  0  0  0  0  0  0  0
   22.2367  -25.9449   -4.5203 H   0  0  0  0  0  0  0  0  0  0  0  0
   20.4519  -23.9983   -2.4526 H   0  0  0  0  0  0  0  0  0  0  0  0
   21.7271  -25.5340   -3.1706 H   0  0  0  0  0  0  0  0  0  0  0  0
   20.1838  -23.2939   -4.4355 H   0  0  0  0  0  0  0  0  0  0  0  0
   20.7884  -22.6338  -12.7885 H   0  0  0  0  0  0  0  0  0  0  0  0
   20.2229  -22.2271  -10.9267 H   0  0  0  0  0  0  0  0  0  0  0  0
   22.3618  -24.5197  -13.6356 H   0  0  0  0  0  0  0  0  0  0  0  0
   22.8520  -25.8202   -9.8036 H   0  0  0  0  0  0  0  0  0  0  0  0
   23.1839  -25.9335  -11.6169 H   0  0  0  0  0  0  0  0  0  0  0  0
  1  2  1  0
  2  3  1  0
  3  4  1  0
  4  5  1  0
  5  6  1  0
  6  7  1  0
  7  8  1  0
  8  9  1  0
  9 10  1  0
 10 11  1  0
 11 12  1  0
 12 13  1  0
 13 14  1  0
 14 15  1  0
 15 16  1  0
 16 17  1  0
 17 18  1  0
 17 19  1  0
 17 20  1  0
  6 21  1  0
 21 22  1  0
 22 23  1  0
 23 24  1  0
 24 25  1  0
 25 26  1  0
 26 27  1  0
 22 28  1  0
 28 29  1  0
 29 30  1  0
 25  2  1  0
 26  3  1  0
 14  9  1  0
 20 15  1  0
 30 22  1  0
 16 10  1  0
 20 11  1  0
 14 12  1  0
 20 16  1  0
  1 31  1  0
  1 32  1  0
  1 33  1  0
  2 34  1  0
  3 35  1  0
  4 36  1  0
  4 37  1  0
  5 38  1  0
  5 39  1  0
  6 40  1  0
  8 41  1  0
  8 42  1  0
  9 43  1  0
 10 44  1  0
 11 45  1  0
 12 46  1  0
 13 47  1  0
 13 48  1  0
 15 49  1  0
 18 50  1  0
 18 51  1  0
 18 52  1  0
 19 53  1  0
 19 54  1  0
 19 55  1  0
 21 56  1  0
 21 57  1  0
 23 58  1  0
 23 59  1  0
 24 60  1  0
 24 61  1  0
 25 62  1  0
 26 63  1  0
 27 64  1  0
 27 65  1  0
 27 66  1  0
 28 67  1  0
 28 68  1  0
 29 69  1  0
 30 70  1  0
 30 71  1  0
M  END
