
     RDKit          2D

 99112  0  0  0  0  0  0  0  0999 V2000
   -1.2172   25.2366    0.0360 C   0  0  0  0  0  0  0  0  0  0  0  0
   -0.8572   25.6516    1.4319 C   0  0  0  0  0  0  0  0  0  0  0  0
    0.5759   25.9108    1.7912 C   0  0  0  0  0  0  0  0  0  0  0  0
    2.0091   26.1699    2.1505 C   0  0  0  0  0  0  0  0  0  0  0  0
    2.3690   26.5848    3.5463 C   0  0  0  0  0  0  0  0  0  0  0  0
    4.2397   27.0312    4.4188 C   0  0  0  0  0  0  0  0  0  0  0  0
    5.1646   26.8308    3.2782 C   0  0  0  0  0  0  0  0  0  0  0  0
    4.2875   27.0517    4.4749 N   0  0  0  0  0  0  0  0  0  0  0  0
    2.9251   27.0649    5.1023 C   0  0  0  0  0  0  0  0  0  0  0  0
    2.0481   27.2857    6.2990 C   0  0  0  0  0  0  0  0  0  0  0  0
    0.7563   27.3011    6.9046 O   0  0  0  0  0  0  0  0  0  0  0  0
   -0.6607   27.0301    6.4941 C   0  0  0  0  0  0  0  0  0  0  0  0
   -1.5813   27.2377    7.6600 C   0  0  0  0  0  0  0  0  0  0  0  0
   -1.4480   26.6169    5.2860 C   0  0  0  0  0  0  0  0  0  0  0  0
   -0.2128   25.7223    1.4223 C   0  0  0  0  0  0  0  0  0  0  0  0
    0.6642   25.5014    0.2256 C   0  0  0  0  0  0  0  0  0  0  0  0
    2.0267   25.4882   -0.4018 C   0  0  0  0  0  0  0  0  0  0  0  0
    3.1858   25.3670   -1.3460 C   0  0  0  0  0  0  0  0  0  0  0  0
    4.5776   25.6539   -0.8657 C   0  0  0  0  0  0  0  0  0  0  0  0
    4.8102   26.0620    0.5589 C   0  0  0  0  0  0  0  0  0  0  0  0
    5.7480   26.4632    1.6587 C   0  0  0  0  0  0  0  0  0  0  0  0
    5.3211   26.4614    1.8328 N   0  0  0  0  0  0  0  0  0  0  0  0
    3.4184   25.7751    0.0785 C   0  0  0  0  0  0  0  0  0  0  0  0
   -0.3693   26.0917    2.8676 C   0  0  0  0  0  0  0  0  0  0  0  0
    0.2364   26.5106    4.1744 C   0  0  0  0  0  0  0  0  0  0  0  0
   -1.2363   26.4149    4.4422 C   0  0  0  0  0  0  0  0  0  0  0  0
   -2.1133   26.6358    5.6389 C   0  0  0  0  0  0  0  0  0  0  0  0
   -2.6999   26.9304    6.9877 C   0  0  0  0  0  0  0  0  0  0  0  0
   -1.9940   27.3472    8.2438 C   0  0  0  0  0  0  0  0  0  0  0  0
   -0.5270   27.5723    8.4615 C   0  0  0  0  0  0  0  0  0  0  0  0
    0.7979   27.4958    7.6136 C   0  0  0  0  0  0  0  0  0  0  0  0
    1.6750   27.2749    6.4169 C   0  0  0  0  0  0  0  0  0  0  0  0
    1.4424   26.8668    4.9923 C   0  0  0  0  0  0  0  0  0  0  0  0
   -0.6749   27.4001    7.8814 C   0  0  0  0  0  0  0  0  0  0  0  0
   -1.8807   27.0439    7.0635 C   0  0  0  0  0  0  0  0  0  0  0  0
   -1.5516   26.9931    6.7344 C   0  0  0  0  0  0  0  0  0  0  0  0
   -2.4555   27.2059    7.9123 C   0  0  0  0  0  0  0  0  0  0  0  0
   -3.3595   27.4187    9.0903 C   0  0  0  0  0  0  0  0  0  0  0  0
   -4.2634   27.6315   10.2683 C   0  0  0  0  0  0  0  0  0  0  0  0
    0.1650   26.2337    3.1972 C   0  0  0  0  0  0  0  0  0  0  0  0
    1.5050   26.5450    3.7952 C   0  0  0  0  0  0  0  0  0  0  0  0
    0.2690   26.6258    4.6413 C   0  0  0  0  0  0  0  0  0  0  0  0
    0.3730   27.0179    6.0853 C   0  0  0  0  0  0  0  0  0  0  0  0
    1.7130   27.3292    6.6834 C   0  0  0  0  0  0  0  0  0  0  0  0
    1.6089   26.9371    5.2393 C   0  0  0  0  0  0  0  0  0  0  0  0
   -2.6503   24.9774   -0.3232 H   0  0  0  0  0  0  0  0  0  0  0  0
   -0.2783   25.0345   -1.1162 H   0  0  0  0  0  0  0  0  0  0  0  0
   -2.1488   25.7086    2.1924 H   0  0  0  0  0  0  0  0  0  0  0  0
    1.1585   25.6218    0.4395 H   0  0  0  0  0  0  0  0  0  0  0  0
    3.0821   26.0142    1.1139 H   0  0  0  0  0  0  0  0  0  0  0  0
    1.2960   26.7404    4.5827 H   0  0  0  0  0  0  0  0  0  0  0  0
    3.6988   26.4458    2.4631 H   0  0  0  0  0  0  0  0  0  0  0  0
    6.5563   27.1177    3.7585 H   0  0  0  0  0  0  0  0  0  0  0  0
    5.2253   27.4529    5.5747 H   0  0  0  0  0  0  0  0  0  0  0  0
    2.2550   27.6921    7.7281 H   0  0  0  0  0  0  0  0  0  0  0  0
   -1.5588   27.6282    9.1081 H   0  0  0  0  0  0  0  0  0  0  0  0
   -2.9113   27.2721    8.3528 H   0  0  0  0  0  0  0  0  0  0  0  0
   -2.8740   26.3523    4.9033 H   0  0  0  0  0  0  0  0  0  0  0  0
   -1.6046   25.4354    0.9420 H   0  0  0  0  0  0  0  0  0  0  0  0
    0.7430   25.1222   -1.2235 H   0  0  0  0  0  0  0  0  0  0  0  0
   -0.6267   25.1702   -0.4629 H   0  0  0  0  0  0  0  0  0  0  0  0
    0.5684   25.2526   -0.6624 H   0  0  0  0  0  0  0  0  0  0  0  0
    2.9533   24.9590   -2.7706 H   0  0  0  0  0  0  0  0  0  0  0  0
    5.7368   25.5328   -1.8100 H   0  0  0  0  0  0  0  0  0  0  0  0
    6.6857   26.8645    2.7585 H   0  0  0  0  0  0  0  0  0  0  0  0
    6.5523   27.0184    0.5208 H   0  0  0  0  0  0  0  0  0  0  0  0
    4.8223   25.8546    2.6700 H   0  0  0  0  0  0  0  0  0  0  0  0
    6.8113   26.6061    1.7407 H   0  0  0  0  0  0  0  0  0  0  0  0
   -1.7789   25.8156    2.4354 H   0  0  0  0  0  0  0  0  0  0  0  0
   -1.8028   26.0464    3.3069 H   0  0  0  0  0  0  0  0  0  0  0  0
   -1.1505   26.2211    3.6821 H   0  0  0  0  0  0  0  0  0  0  0  0
   -2.5525   26.0929    3.7988 H   0  0  0  0  0  0  0  0  0  0  0  0
   -1.7944   25.9958    3.1144 H   0  0  0  0  0  0  0  0  0  0  0  0
   -3.5629   26.3912    5.3411 H   0  0  0  0  0  0  0  0  0  0  0  0
   -3.9058   26.5742    6.1697 H   0  0  0  0  0  0  0  0  0  0  0  0
   -4.1001   26.9154    7.5256 H   0  0  0  0  0  0  0  0  0  0  0  0
   -3.1940   27.4503    9.1378 H   0  0  0  0  0  0  0  0  0  0  0  0
   -1.9279   27.7420    9.6894 H   0  0  0  0  0  0  0  0  0  0  0  0
   -0.5834   27.9542    9.9109 H   0  0  0  0  0  0  0  0  0  0  0  0
    0.6788   27.9285    9.2795 H   0  0  0  0  0  0  0  0  0  0  0  0
    1.4156   27.9146    8.9148 H   0  0  0  0  0  0  0  0  0  0  0  0
    3.1434   27.3634    6.1242 H   0  0  0  0  0  0  0  0  0  0  0  0
    2.4644   27.6879    7.6236 H   0  0  0  0  0  0  0  0  0  0  0  0
   -0.8443   27.7678    9.3258 H   0  0  0  0  0  0  0  0  0  0  0  0
   -2.4157   27.3494    8.4311 H   0  0  0  0  0  0  0  0  0  0  0  0
   -3.3715   26.8923    7.1304 H   0  0  0  0  0  0  0  0  0  0  0  0
   -3.0005   26.7478    6.4336 H   0  0  0  0  0  0  0  0  0  0  0  0
   -3.8250   26.9081    7.3775 H   0  0  0  0  0  0  0  0  0  0  0  0
   -1.5236   27.6067    9.0172 H   0  0  0  0  0  0  0  0  0  0  0  0
   -4.6476   27.0948    8.3933 H   0  0  0  0  0  0  0  0  0  0  0  0
   -2.2917   27.7946   10.0746 H   0  0  0  0  0  0  0  0  0  0  0  0
   -5.1673   27.8443   11.4462 H   0  0  0  0  0  0  0  0  0  0  0  0
   -3.0765   27.9827   11.1156 H   0  0  0  0  0  0  0  0  0  0  0  0
   -5.4503   27.2804    9.4210 H   0  0  0  0  0  0  0  0  0  0  0  0
   -1.3177   26.0345    3.0875 H   0  0  0  0  0  0  0  0  0  0  0  0
    2.9060   26.5649    3.2595 H   0  0  0  0  0  0  0  0  0  0  0  0
   -1.1097   26.8985    6.2788 H   0  0  0  0  0  0  0  0  0  0  0  0
    1.6610   27.7053    8.1345 H   0  0  0  0  0  0  0  0  0  0  0  0
    3.1956   27.5284    6.7931 H   0  0  0  0  0  0  0  0  0  0  0  0
  1  2  2  3
  2  3  1  0
  3  4  1  0
  4  5  2  3
  5  6  1  0
  6  7  1  0
  7  8  1  0
  9  8  1  1
  9 10  1  0
 10 11  1  0
 11 12  1  0
 12 13  2  3
 12 14  1  0
 14 15  1  0
 15 16  1  0
 16 17  1  0
 17 18  1  0
 18 19  1  0
 19 20  1  0
 20 21  1  1
 20 22  1  0
 23 20  1  1
 15 24  1  0
 24 25  1  0
 25 26  1  0
 26 27  1  0
 27 28  1  0
 28 29  1  0
 29 30  1  0
 30 31  1  0
 31 32  1  0
 33 32  1  6
 31 34  1  0
 34 35  1  0
 34 36  1  0
 36 37  1  0
 37 38  1  0
 38 39  1  0
  3 40  1  0
 40 41  1  0
 41 42  1  0
 42 43  1  0
 43 44  1  0
 45 44  1  1
  9  6  1  0
 33 10  1  0
 42 40  1  0
 45 43  1  0
 22  7  1  0
 33 25  1  0
 45 41  1  0
 33  9  1  0
 42 45  1  1
 36 14  1  0
 23 17  1  0
 35 27  1  0
 23 18  1  0
 23 19  1  0
  1 46  1  0
  1 47  1  0
  2 48  1  0
  3 49  1  1
  4 50  1  0
  5 51  1  0
  6 52  1  1
  7 53  1  1
  8 54  1  0
 10 55  1  1
 13 56  1  0
 13 57  1  0
 14 58  1  1
 15 59  1  6
 16 60  1  0
 16 61  1  0
 17 62  1  1
 18 63  1  6
 19 64  1  6
 21 65  1  0
 21 66  1  0
 21 67  1  0
 22 68  1  0
 24 69  1  0
 24 70  1  0
 25 71  1  6
 26 72  1  0
 26 73  1  0
 27 74  1  1
 28 75  1  0
 28 76  1  0
 29 77  1  0
 29 78  1  0
 30 79  1  0
 30 80  1  0
 31 81  1  1
 32 82  1  0
 32 83  1  0
 34 84  1  6
 35 85  1  0
 35 86  1  0
 36 87  1  1
 37 88  1  0
 37 89  1  0
 38 90  1  0
 38 91  1  0
 39 92  1  0
 39 93  1  0
 39 94  1  0
 40 95  1  1
 41 96  1  6
 43 97  1  6
 44 98  1  0
 44 99  1  0
M  END
