
     RDKit          2D

 24 24  0  0  0  0  0  0  0  0999 V2000
   -1.6400   21.4837   -0.1137 C   0  0  0  0  0  0  0  0  0  0  0  0
   -2.9937   21.3252    0.5127 C   0  0  0  0  0  0  0  0  0  0  0  0
   -4.2908   20.6951    0.9256 C   0  0  0  0  0  0  0  0  0  0  0  0
   -5.2808   21.4783    1.7358 C   0  0  0  0  0  0  0  0  0  0  0  0
   -4.9737   22.8917    2.1331 C   0  0  0  0  0  0  0  0  0  0  0  0
   -3.6767   23.5219    1.7203 C   0  0  0  0  0  0  0  0  0  0  0  0
   -4.2902   24.6615    2.4785 C   0  0  0  0  0  0  0  0  0  0  0  0
   -5.1659   24.6709    2.9275 O   0  0  0  0  0  0  0  0  0  0  0  0
   -3.5501   25.9595    2.6104 O   0  0  0  0  0  0  0  0  0  0  0  0
   -2.6867   22.7387    0.9101 C   0  0  0  0  0  0  0  0  0  0  0  0
   -0.2863   21.6422   -0.7401 H   0  0  0  0  0  0  0  0  0  0  0  0
   -1.7124   20.0758   -0.6260 H   0  0  0  0  0  0  0  0  0  0  0  0
   -1.5142   22.2366    0.1160 H   0  0  0  0  0  0  0  0  0  0  0  0
   -2.8306   19.9668   -0.1022 H   0  0  0  0  0  0  0  0  0  0  0  0
   -3.6773   19.5555    0.1673 H   0  0  0  0  0  0  0  0  0  0  0  0
   -5.3748   19.6691    1.0751 H   0  0  0  0  0  0  0  0  0  0  0  0
   -6.0209   20.1803    1.6039 H   0  0  0  0  0  0  0  0  0  0  0  0
   -6.5279   21.8107    2.5001 H   0  0  0  0  0  0  0  0  0  0  0  0
   -6.3275   22.7333    2.7595 H   0  0  0  0  0  0  0  0  0  0  0  0
   -5.1876   23.7443    2.5757 H   0  0  0  0  0  0  0  0  0  0  0  0
   -2.5927   24.5478    1.5707 H   0  0  0  0  0  0  0  0  0  0  0  0
   -4.1637   27.0990    3.3687 H   0  0  0  0  0  0  0  0  0  0  0  0
   -1.9466   24.0366    1.0419 H   0  0  0  0  0  0  0  0  0  0  0  0
   -1.9944   22.6525    0.5242 H   0  0  0  0  0  0  0  0  0  0  0  0
  1  2  1  0
  2  3  1  0
  3  4  1  0
  4  5  1  0
  5  6  1  0
  6  7  1  0
  7  8  2  0
  7  9  1  0
  6 10  1  0
 10  2  1  0
  1 11  1  0
  1 12  1  0
  1 13  1  0
  2 14  1  0
  3 15  1  0
  3 16  1  0
  4 17  1  0
  4 18  1  0
  5 19  1  0
  5 20  1  0
  6 21  1  0
  9 22  1  0
 10 23  1  0
 10 24  1  0
M  END
