
     RDKit          2D

110116  0  0  0  0  0  0  0  0999 V2000
   11.0360  -26.9090    0.2001 C   0  0  0  0  0  0  0  0  0  0  0  0
   12.4511  -26.4380    0.3594 C   0  0  0  0  0  0  0  0  0  0  0  0
   13.0369  -25.4749   -0.6302 C   0  0  0  0  0  0  0  0  0  0  0  0
   13.6228  -24.5118   -1.6197 C   0  0  0  0  0  0  0  0  0  0  0  0
   14.2086  -23.5487   -2.6093 C   0  0  0  0  0  0  0  0  0  0  0  0
   14.5960  -22.2504   -3.2530 C   0  0  0  0  0  0  0  0  0  0  0  0
   15.3514  -22.2518   -4.5489 C   0  0  0  0  0  0  0  0  0  0  0  0
   15.7193  -23.5515   -5.2012 C   0  0  0  0  0  0  0  0  0  0  0  0
   16.3052  -22.5884   -6.1907 C   0  0  0  0  0  0  0  0  0  0  0  0
   16.8910  -21.6253   -7.1803 C   0  0  0  0  0  0  0  0  0  0  0  0
   17.4769  -20.6622   -8.1699 C   0  0  0  0  0  0  0  0  0  0  0  0
   16.1613  -20.4968   -6.5140 C   0  0  0  0  0  0  0  0  0  0  0  0
   16.7266  -23.7368   -7.0589 N   0  0  0  0  0  0  0  0  0  0  0  0
   17.4405  -23.6323   -8.3739 C   0  0  0  0  0  0  0  0  0  0  0  0
   17.3637  -22.1561   -8.1196 C   0  0  0  0  0  0  0  0  0  0  0  0
   17.2868  -20.6798   -7.8651 C   0  0  0  0  0  0  0  0  0  0  0  0
   16.6497  -22.4161   -6.8262 C   0  0  0  0  0  0  0  0  0  0  0  0
   15.9358  -22.6761   -5.5330 C   0  0  0  0  0  0  0  0  0  0  0  0
   16.0193  -24.1527   -5.7837 C   0  0  0  0  0  0  0  0  0  0  0  0
   15.2218  -22.9362   -4.2396 C   0  0  0  0  0  0  0  0  0  0  0  0
   14.7982  -21.7877   -3.3726 C   0  0  0  0  0  0  0  0  0  0  0  0
   17.6633  -25.0222   -8.8921 C   0  0  0  0  0  0  0  0  0  0  0  0
   17.0870  -25.9857   -7.8973 C   0  0  0  0  0  0  0  0  0  0  0  0
   16.4358  -26.6893   -6.7438 N   0  0  0  0  0  0  0  0  0  0  0  0
   16.5082  -25.1913   -6.7643 C   0  0  0  0  0  0  0  0  0  0  0  0
   17.1595  -24.4876   -7.9179 N   0  0  0  0  0  0  0  0  0  0  0  0
   17.5772  -23.2164   -8.5957 C   0  0  0  0  0  0  0  0  0  0  0  0
   17.9950  -21.9452   -9.2735 C   0  0  0  0  0  0  0  0  0  0  0  0
   18.0260  -20.4466   -9.2173 C   0  0  0  0  0  0  0  0  0  0  0  0
   18.5081  -19.2762  -10.0221 C   0  0  0  0  0  0  0  0  0  0  0  0
   19.2159  -18.9816  -11.3114 C   0  0  0  0  0  0  0  0  0  0  0  0
   19.3945  -17.5086  -11.5306 C   0  0  0  0  0  0  0  0  0  0  0  0
   20.1070  -17.3172  -12.8366 C   0  0  0  0  0  0  0  0  0  0  0  0
   20.3689  -18.6722  -13.4246 C   0  0  0  0  0  0  0  0  0  0  0  0
   19.8181  -19.7008  -12.4819 C   0  0  0  0  0  0  0  0  0  0  0  0
   20.5151  -19.9268  -13.7907 C   0  0  0  0  0  0  0  0  0  0  0  0
   20.0330  -21.0972  -12.9860 C   0  0  0  0  0  0  0  0  0  0  0  0
   19.7600  -22.5173  -12.5877 C   0  0  0  0  0  0  0  0  0  0  0  0
   19.1268  -23.2967  -11.4734 C   0  0  0  0  0  0  0  0  0  0  0  0
   19.2202  -24.7666  -11.7579 C   0  0  0  0  0  0  0  0  0  0  0  0
   18.4298  -23.0708  -10.1646 C   0  0  0  0  0  0  0  0  0  0  0  0
   15.3319  -24.8498   -4.5574 C   0  0  0  0  0  0  0  0  0  0  0  0
   16.0379  -25.3642   -5.7769 C   0  0  0  0  0  0  0  0  0  0  0  0
   16.7439  -25.8784   -6.9964 O   0  0  0  0  0  0  0  0  0  0  0  0
   14.5766  -24.8484   -3.2615 S   0  0  0  0  0  0  0  0  0  0  0  0
   10.4500  -27.8720    1.1896 H   0  0  0  0  0  0  0  0  0  0  0  0
   10.2065  -26.4169   -0.9488 H   0  0  0  0  0  0  0  0  0  0  0  0
   13.2805  -26.9301    1.5084 H   0  0  0  0  0  0  0  0  0  0  0  0
   13.3750  -26.6171   -1.5417 H   0  0  0  0  0  0  0  0  0  0  0  0
   12.6989  -24.3326    0.2814 H   0  0  0  0  0  0  0  0  0  0  0  0
   13.9798  -25.6558   -2.5218 H   0  0  0  0  0  0  0  0  0  0  0  0
   13.2657  -23.3677   -0.7177 H   0  0  0  0  0  0  0  0  0  0  0  0
   13.5812  -22.7306   -1.5197 H   0  0  0  0  0  0  0  0  0  0  0  0
   13.8625  -21.9117   -1.9892 H   0  0  0  0  0  0  0  0  0  0  0  0
   14.6467  -20.7526   -3.3159 H   0  0  0  0  0  0  0  0  0  0  0  0
   15.3230  -20.7539   -4.4762 H   0  0  0  0  0  0  0  0  0  0  0  0
   15.9838  -21.4141   -5.6205 H   0  0  0  0  0  0  0  0  0  0  0  0
   16.1542  -24.7659   -5.9668 H   0  0  0  0  0  0  0  0  0  0  0  0
   15.8837  -21.4400   -5.3226 H   0  0  0  0  0  0  0  0  0  0  0  0
   17.7822  -22.3337   -8.1571 H   0  0  0  0  0  0  0  0  0  0  0  0
   18.0002  -19.5662   -9.0501 H   0  0  0  0  0  0  0  0  0  0  0  0
   17.1558  -19.3135   -7.5974 H   0  0  0  0  0  0  0  0  0  0  0  0
   18.1321  -21.3905   -9.3058 H   0  0  0  0  0  0  0  0  0  0  0  0
   15.4316  -19.3683   -5.8477 H   0  0  0  0  0  0  0  0  0  0  0  0
   16.8268  -19.2655   -7.0535 H   0  0  0  0  0  0  0  0  0  0  0  0
   15.1428  -21.1820   -5.6520 H   0  0  0  0  0  0  0  0  0  0  0  0
   18.1274  -23.9442   -9.6704 H   0  0  0  0  0  0  0  0  0  0  0  0
   18.0629  -21.7180   -9.3722 H   0  0  0  0  0  0  0  0  0  0  0  0
   17.2099  -19.2035   -7.6107 H   0  0  0  0  0  0  0  0  0  0  0  0
   16.5979  -20.3936   -6.5638 H   0  0  0  0  0  0  0  0  0  0  0  0
   17.9205  -19.9076   -8.9841 H   0  0  0  0  0  0  0  0  0  0  0  0
   16.3189  -21.1310   -6.1268 H   0  0  0  0  0  0  0  0  0  0  0  0
   16.6422  -23.9132   -6.9192 H   0  0  0  0  0  0  0  0  0  0  0  0
   16.3448  -23.8576   -6.3616 H   0  0  0  0  0  0  0  0  0  0  0  0
   16.2731  -25.5224   -6.3399 H   0  0  0  0  0  0  0  0  0  0  0  0
   15.3827  -24.9248   -4.6662 H   0  0  0  0  0  0  0  0  0  0  0  0
   16.7158  -24.4391   -7.0809 H   0  0  0  0  0  0  0  0  0  0  0  0
   14.7152  -24.0673   -3.3945 H   0  0  0  0  0  0  0  0  0  0  0  0
   14.0869  -21.6828   -2.0562 H   0  0  0  0  0  0  0  0  0  0  0  0
   15.0886  -20.3792   -3.7990 H   0  0  0  0  0  0  0  0  0  0  0  0
   18.3660  -24.6596  -10.1669 H   0  0  0  0  0  0  0  0  0  0  0  0
   18.0222  -26.2650   -9.6515 H   0  0  0  0  0  0  0  0  0  0  0  0
   16.0180  -27.9606   -6.0660 H   0  0  0  0  0  0  0  0  0  0  0  0
   16.9528  -22.5829   -7.3879 H   0  0  0  0  0  0  0  0  0  0  0  0
   18.1550  -24.0107   -9.7293 H   0  0  0  0  0  0  0  0  0  0  0  0
   17.3542  -21.3755   -8.0428 H   0  0  0  0  0  0  0  0  0  0  0  0
   17.3587  -20.0080   -7.9475 H   0  0  0  0  0  0  0  0  0  0  0  0
   17.5879  -19.3267   -8.3206 H   0  0  0  0  0  0  0  0  0  0  0  0
   17.9082  -18.5494   -8.8551 H   0  0  0  0  0  0  0  0  0  0  0  0
   18.5349  -17.7777   -9.9581 H   0  0  0  0  0  0  0  0  0  0  0  0
   18.8975  -20.3648  -10.8262 H   0  0  0  0  0  0  0  0  0  0  0  0
   18.7065  -17.2053  -10.2326 H   0  0  0  0  0  0  0  0  0  0  0  0
   19.4254  -16.0099  -11.4743 H   0  0  0  0  0  0  0  0  0  0  0  0
   19.9890  -15.8586  -12.5073 H   0  0  0  0  0  0  0  0  0  0  0  0
   20.7949  -16.8211  -14.0738 H   0  0  0  0  0  0  0  0  0  0  0  0
   20.9571  -17.7425  -14.4442 H   0  0  0  0  0  0  0  0  0  0  0  0
   20.8954  -19.6088  -14.4713 H   0  0  0  0  0  0  0  0  0  0  0  0
   20.8666  -18.5757  -14.3395 H   0  0  0  0  0  0  0  0  0  0  0  0
   21.1174  -20.6460  -14.9613 H   0  0  0  0  0  0  0  0  0  0  0  0
   20.6774  -21.6507  -14.2222 H   0  0  0  0  0  0  0  0  0  0  0  0
   20.4560  -22.7519  -13.8955 H   0  0  0  0  0  0  0  0  0  0  0  0
   19.8943  -23.9675  -12.9467 H   0  0  0  0  0  0  0  0  0  0  0  0
   18.6539  -25.7566  -10.7836 H   0  0  0  0  0  0  0  0  0  0  0  0
   19.8798  -25.2464  -13.0167 H   0  0  0  0  0  0  0  0  0  0  0  0
   18.6526  -24.4606  -10.6829 H   0  0  0  0  0  0  0  0  0  0  0  0
   18.1041  -24.4473   -9.6654 H   0  0  0  0  0  0  0  0  0  0  0  0
   15.1897  -26.3267   -4.3373 H   0  0  0  0  0  0  0  0  0  0  0  0
   15.7750  -26.7732   -5.3349 H   0  0  0  0  0  0  0  0  0  0  0  0
   16.6016  -24.3616   -6.7398 H   0  0  0  0  0  0  0  0  0  0  0  0
   16.8640  -27.3559   -7.2263 H   0  0  0  0  0  0  0  0  0  0  0  0
  1  2  2  3
  2  3  1  0
  3  4  1  0
  4  5  1  0
  5  6  1  0
  6  7  1  0
  7  8  1  0
  8  9  1  0
  9 10  1  0
 10 11  1  0
 10 12  1  0
  9 13  1  0
 13 14  1  0
 14 15  1  0
 15 16  1  0
 15 17  1  0
 17 18  1  0
 18 19  1  0
 18 20  1  0
 20 21  2  3
 14 22  1  0
 22 23  1  0
 23 24  1  0
 24 25  1  0
 25 26  1  0
 26 27  1  0
 27 28  1  0
 28 29  1  0
 29 30  1  0
 30 31  1  0
 31 32  1  0
 32 33  1  0
 33 34  1  0
 34 35  1  0
 35 36  1  0
 36 37  1  0
 37 38  1  0
 38 39  1  0
 39 40  2  3
 39 41  1  0
  8 42  1  0
 42 43  1  0
 43 44  1  0
 42 45  1  0
 45  5  1  0
 25 13  1  0
 41 28  1  0
 25 23  1  0
 35 31  1  0
 26 23  1  0
 37 35  1  0
  1 46  1  0
  1 47  1  0
  2 48  1  0
  3 49  1  0
  3 50  1  0
  4 51  1  0
  4 52  1  0
  5 53  1  0
  6 54  1  0
  6 55  1  0
  7 56  1  0
  7 57  1  0
  8 58  1  0
  9 59  1  0
 10 60  1  0
 11 61  1  0
 11 62  1  0
 11 63  1  0
 12 64  1  0
 12 65  1  0
 12 66  1  0
 14 67  1  0
 15 68  1  0
 16 69  1  0
 16 70  1  0
 16 71  1  0
 17 72  1  0
 17 73  1  0
 18 74  1  0
 19 75  1  0
 19 76  1  0
 19 77  1  0
 20 78  1  0
 21 79  1  0
 21 80  1  0
 22 81  1  0
 22 82  1  0
 24 83  1  0
 27 84  1  0
 27 85  1  0
 28 86  1  0
 29 87  1  0
 29 88  1  0
 30 89  1  0
 30 90  1  0
 31 91  1  0
 32 92  1  0
 32 93  1  0
 33 94  1  0
 33 95  1  0
 34 96  1  0
 34 97  1  0
 36 98  1  0
 36 99  1  0
 37100  1  0
 38101  1  0
 38102  1  0
 40103  1  0
 40104  1  0
 41105  1  0
 41106  1  0
 42107  1  0
 43108  1  0
 43109  1  0
 44110  1  0
M  END
