
     RDKit          2D

 42 42  0  0  0  0  0  0  0  0999 V2000
   16.0913  -19.1064   -4.6243 C   0  0  0  0  0  0  0  0  0  0  0  0
   16.1785  -20.5331   -5.0794 C   0  0  0  0  0  0  0  0  0  0  0  0
   16.2657  -21.9597   -5.5346 C   0  0  0  0  0  0  0  0  0  0  0  0
   16.6072  -21.3504   -6.8620 C   0  0  0  0  0  0  0  0  0  0  0  0
   16.9488  -20.7412   -8.1895 C   0  0  0  0  0  0  0  0  0  0  0  0
   17.2903  -20.1319   -9.5169 N   0  0  0  0  0  0  0  0  0  0  0  0
   17.3541  -18.6405   -9.6635 C   0  0  0  0  0  0  0  0  0  0  0  0
   17.5681  -21.0141  -10.6978 C   0  0  0  0  0  0  0  0  0  0  0  0
   17.8459  -21.8964  -11.8787 C   0  0  0  0  0  0  0  0  0  0  0  0
   18.1236  -22.7786  -13.0597 C   0  0  0  0  0  0  0  0  0  0  0  0
   17.6138  -23.1092  -11.0273 O   0  0  0  0  0  0  0  0  0  0  0  0
   15.9059  -22.2707   -4.1119 C   0  0  0  0  0  0  0  0  0  0  0  0
   15.8421  -23.7621   -3.9653 C   0  0  0  0  0  0  0  0  0  0  0  0
   16.1625  -24.3729   -5.2974 C   0  0  0  0  0  0  0  0  0  0  0  0
   16.4243  -23.2589   -6.2672 C   0  0  0  0  0  0  0  0  0  0  0  0
   16.0041  -17.6798   -4.1691 H   0  0  0  0  0  0  0  0  0  0  0  0
   15.7387  -19.5691   -3.2416 H   0  0  0  0  0  0  0  0  0  0  0  0
   16.4438  -18.6438   -6.0068 H   0  0  0  0  0  0  0  0  0  0  0  0
   16.3579  -20.1966   -5.7794 H   0  0  0  0  0  0  0  0  0  0  0  0
   15.8195  -20.8184   -3.6511 H   0  0  0  0  0  0  0  0  0  0  0  0
   16.9541  -20.6906   -6.5797 H   0  0  0  0  0  0  0  0  0  0  0  0
   16.0377  -22.4436   -7.7168 H   0  0  0  0  0  0  0  0  0  0  0  0
   17.0311  -22.1103   -8.7967 H   0  0  0  0  0  0  0  0  0  0  0  0
   16.8664  -19.3721   -7.5823 H   0  0  0  0  0  0  0  0  0  0  0  0
   17.4178  -17.1491   -9.8101 H   0  0  0  0  0  0  0  0  0  0  0  0
   17.7102  -18.7981  -11.1121 H   0  0  0  0  0  0  0  0  0  0  0  0
   16.9979  -18.4830   -8.2149 H   0  0  0  0  0  0  0  0  0  0  0  0
   17.3357  -22.2270   -9.8464 H   0  0  0  0  0  0  0  0  0  0  0  0
   17.8004  -19.8014  -11.5492 H   0  0  0  0  0  0  0  0  0  0  0  0
   18.0779  -20.6835  -12.7302 H   0  0  0  0  0  0  0  0  0  0  0  0
   18.4014  -23.6608  -14.2406 H   0  0  0  0  0  0  0  0  0  0  0  0
   16.6785  -23.1786  -13.1008 H   0  0  0  0  0  0  0  0  0  0  0  0
   19.5918  -22.4891  -13.1628 H   0  0  0  0  0  0  0  0  0  0  0  0
   17.6937  -24.5438  -11.4584 H   0  0  0  0  0  0  0  0  0  0  0  0
   15.5436  -22.2698   -2.6564 H   0  0  0  0  0  0  0  0  0  0  0  0
   15.8497  -20.8092   -3.7789 H   0  0  0  0  0  0  0  0  0  0  0  0
   15.7054  -25.1882   -3.5209 H   0  0  0  0  0  0  0  0  0  0  0  0
   15.4932  -23.4495   -2.5404 H   0  0  0  0  0  0  0  0  0  0  0  0
   16.4403  -25.2551   -6.4783 H   0  0  0  0  0  0  0  0  0  0  0  0
   15.9588  -25.6713   -4.5744 H   0  0  0  0  0  0  0  0  0  0  0  0
   16.7537  -22.5326   -7.5376 H   0  0  0  0  0  0  0  0  0  0  0  0
   16.6473  -24.3740   -7.2453 H   0  0  0  0  0  0  0  0  0  0  0  0
  1  2  1  0
  2  3  1  0
  3  4  1  0
  4  5  1  0
  5  6  1  0
  6  7  1  0
  6  8  1  0
  8  9  1  0
  9 10  1  0
  9 11  1  0
  3 12  1  0
 12 13  1  0
 13 14  1  0
 14 15  1  0
 15  3  1  0
  1 16  1  0
  1 17  1  0
  1 18  1  0
  2 19  1  0
  2 20  1  0
  4 21  1  0
  4 22  1  0
  5 23  1  0
  5 24  1  0
  7 25  1  0
  7 26  1  0
  7 27  1  0
  8 28  1  0
  8 29  1  0
  9 30  1  0
 10 31  1  0
 10 32  1  0
 10 33  1  0
 11 34  1  0
 12 35  1  0
 12 36  1  0
 13 37  1  0
 13 38  1  0
 14 39  1  0
 14 40  1  0
 15 41  1  0
 15 42  1  0
M  END
