
     RDKit          2D

 53 59  0  0  0  0  0  0  0  0999 V2000
    4.3272   26.0948    4.1393 C   0  0  0  0  0  0  0  0  0  0  0  0
    2.8932   25.7947    4.4609 C   0  0  0  0  0  0  0  0  0  0  0  0
    2.4706   24.3873    4.7619 C   0  0  0  0  0  0  0  0  0  0  0  0
    3.8306   23.7766    4.5969 S   0  0  0  0  0  0  0  0  0  0  0  0
    2.6589   22.9120    4.9565 C   0  0  0  0  0  0  0  0  0  0  0  0
    1.3268   22.3167    5.3048 C   0  0  0  0  0  0  0  0  0  0  0  0
    0.3153   23.4241    5.3254 C   0  0  0  0  0  0  0  0  0  0  0  0
   -1.1581   23.4325    5.6063 C   0  0  0  0  0  0  0  0  0  0  0  0
   -1.9247   24.7207    5.5518 C   0  0  0  0  0  0  0  0  0  0  0  0
   -2.9909   25.7750    5.5912 C   0  0  0  0  0  0  0  0  0  0  0  0
   -4.0084   24.7326    5.9491 C   0  0  0  0  0  0  0  0  0  0  0  0
   -4.3565   23.3028    6.2393 C   0  0  0  0  0  0  0  0  0  0  0  0
   -4.7046   21.8728    6.5296 C   0  0  0  0  0  0  0  0  0  0  0  0
   -6.1754   22.0104    6.7898 C   0  0  0  0  0  0  0  0  0  0  0  0
   -7.6462   22.1481    7.0501 C   0  0  0  0  0  0  0  0  0  0  0  0
   -3.2902   22.2485    6.1999 C   0  0  0  0  0  0  0  0  0  0  0  0
   -2.9422   23.6783    5.9097 C   0  0  0  0  0  0  0  0  0  0  0  0
   -1.2178   26.0004    5.2162 C   0  0  0  0  0  0  0  0  0  0  0  0
   -0.9958   27.4590    4.9457 C   0  0  0  0  0  0  0  0  0  0  0  0
   -0.7740   28.9176    4.6751 C   0  0  0  0  0  0  0  0  0  0  0  0
   -0.5520   30.3763    4.4045 C   0  0  0  0  0  0  0  0  0  0  0  0
    0.2557   25.9920    4.9353 C   0  0  0  0  0  0  0  0  0  0  0  0
    1.0222   24.7038    4.9899 C   0  0  0  0  0  0  0  0  0  0  0  0
    4.7498   27.5022    3.8383 H   0  0  0  0  0  0  0  0  0  0  0  0
    5.3388   24.9874    4.1187 H   0  0  0  0  0  0  0  0  0  0  0  0
    2.0198   27.0141    4.4375 H   0  0  0  0  0  0  0  0  0  0  0  0
    3.4254   21.6238    5.0111 H   0  0  0  0  0  0  0  0  0  0  0  0
    2.0934   21.0285    5.3594 H   0  0  0  0  0  0  0  0  0  0  0  0
    0.2728   21.3117    5.6639 H   0  0  0  0  0  0  0  0  0  0  0  0
   -0.1446   22.3298    5.5846 H   0  0  0  0  0  0  0  0  0  0  0  0
   -2.5309   22.9334    5.9474 H   0  0  0  0  0  0  0  0  0  0  0  0
   -1.0678   22.2329    5.7766 H   0  0  0  0  0  0  0  0  0  0  0  0
   -4.0571   26.8293    5.6306 H   0  0  0  0  0  0  0  0  0  0  0  0
   -2.5233   26.3932    5.4049 H   0  0  0  0  0  0  0  0  0  0  0  0
   -5.3017   25.4812    6.0798 H   0  0  0  0  0  0  0  0  0  0  0  0
   -4.5418   20.3951    6.7295 H   0  0  0  0  0  0  0  0  0  0  0  0
   -6.2165   23.2274    5.9140 H   0  0  0  0  0  0  0  0  0  0  0  0
   -6.1343   20.7934    7.6657 H   0  0  0  0  0  0  0  0  0  0  0  0
   -9.1170   22.2857    7.3103 H   0  0  0  0  0  0  0  0  0  0  0  0
   -7.7412   20.6710    7.2941 H   0  0  0  0  0  0  0  0  0  0  0  0
   -7.5512   23.6250    6.8061 H   0  0  0  0  0  0  0  0  0  0  0  0
   -2.2240   21.1941    6.1606 H   0  0  0  0  0  0  0  0  0  0  0  0
   -1.9238   26.3621    5.2949 H   0  0  0  0  0  0  0  0  0  0  0  0
    0.4773   27.3730    4.6764 H   0  0  0  0  0  0  0  0  0  0  0  0
   -2.4528   27.7249    5.1837 H   0  0  0  0  0  0  0  0  0  0  0  0
   -2.2314   29.1831    4.9106 H   0  0  0  0  0  0  0  0  0  0  0  0
    0.6835   28.6523    4.4395 H   0  0  0  0  0  0  0  0  0  0  0  0
   -0.3301   31.8349    4.1339 H   0  0  0  0  0  0  0  0  0  0  0  0
    0.9051   30.1106    4.1672 H   0  0  0  0  0  0  0  0  0  0  0  0
   -2.0091   30.6420    4.6418 H   0  0  0  0  0  0  0  0  0  0  0  0
    1.4579   26.8141    4.5764 H   0  0  0  0  0  0  0  0  0  0  0  0
    0.1441   27.4730    4.7251 H   0  0  0  0  0  0  0  0  0  0  0  0
    2.0019   25.7824    4.6336 H   0  0  0  0  0  0  0  0  0  0  0  0
  1  2  2  3
  2  3  1  0
  3  4  1  0
  4  5  1  0
  5  6  1  0
  6  7  1  0
  7  8  1  0
  8  9  1  0
  9 10  1  0
 10 11  1  0
 11 12  1  0
 12 13  1  0
 13 14  1  0
 14 15  1  0
 13 16  1  0
 16 17  1  0
  9 18  1  0
 18 19  1  0
 19 20  1  0
 20 21  1  0
 18 22  1  0
 22 23  1  0
  5  3  1  0
 23  7  1  0
 23  3  1  0
 17  9  1  0
 17 11  1  0
 16 12  1  0
 17 12  1  0
  1 24  1  0
  1 25  1  0
  2 26  1  0
  5 27  1  0
  6 28  1  0
  6 29  1  0
  7 30  1  0
  8 31  1  0
  8 32  1  0
 10 33  1  0
 10 34  1  0
 11 35  1  0
 13 36  1  0
 14 37  1  0
 14 38  1  0
 15 39  1  0
 15 40  1  0
 15 41  1  0
 16 42  1  0
 18 43  1  0
 19 44  1  0
 19 45  1  0
 20 46  1  0
 20 47  1  0
 21 48  1  0
 21 49  1  0
 21 50  1  0
 22 51  1  0
 22 52  1  0
 23 53  1  0
M  END
