
     RDKit          2D

 24 29  0  0  0  0  0  0  0  0999 V2000
   17.2426  -22.5199   -5.5200 O   0  0  0  0  0  0  0  0  0  0  0  0
   15.9277  -21.7991   -5.5625 C   0  0  0  0  0  0  0  0  0  0  0  0
   15.4776  -21.1340   -6.8294 C   0  0  0  0  0  0  0  0  0  0  0  0
   16.6388  -21.4600   -7.7213 C   0  0  0  0  0  0  0  0  0  0  0  0
   17.7999  -21.7859   -8.6133 C   0  0  0  0  0  0  0  0  0  0  0  0
   17.3498  -21.1208   -9.8802 C   0  0  0  0  0  0  0  0  0  0  0  0
   18.2146  -21.1764  -11.1046 C   0  0  0  0  0  0  0  0  0  0  0  0
   19.5294  -21.8971  -11.0620 C   0  0  0  0  0  0  0  0  0  0  0  0
   18.6647  -21.8415   -9.8377 C   0  0  0  0  0  0  0  0  0  0  0  0
   14.6129  -21.0784   -5.6050 C   0  0  0  0  0  0  0  0  0  0  0  0
   13.7481  -21.0228   -4.3806 C   0  0  0  0  0  0  0  0  0  0  0  0
   15.0630  -21.7435   -4.3381 C   0  0  0  0  0  0  0  0  0  0  0  0
   17.6931  -23.1840   -4.2527 H   0  0  0  0  0  0  0  0  0  0  0  0
   14.6244  -20.3558   -7.7865 H   0  0  0  0  0  0  0  0  0  0  0  0
   15.9769  -20.7275   -8.8506 H   0  0  0  0  0  0  0  0  0  0  0  0
   17.3007  -22.1925   -6.5920 H   0  0  0  0  0  0  0  0  0  0  0  0
   18.6532  -22.5642   -7.6562 H   0  0  0  0  0  0  0  0  0  0  0  0
   16.0350  -20.4001   -9.9228 H   0  0  0  0  0  0  0  0  0  0  0  0
   17.7646  -20.5113  -12.3715 H   0  0  0  0  0  0  0  0  0  0  0  0
   19.9935  -21.6757  -12.4712 H   0  0  0  0  0  0  0  0  0  0  0  0
   20.6831  -22.6948  -10.5301 H   0  0  0  0  0  0  0  0  0  0  0  0
   12.5946  -20.2252   -4.9125 H   0  0  0  0  0  0  0  0  0  0  0  0
   13.2841  -21.2442   -2.9715 H   0  0  0  0  0  0  0  0  0  0  0  0
   15.5130  -22.4086   -3.0712 H   0  0  0  0  0  0  0  0  0  0  0  0
  1  2  1  0
  2  3  1  0
  3  4  1  0
  4  5  1  0
  5  6  1  0
  6  7  1  0
  7  8  1  0
  8  9  1  0
  3 10  1  0
 10 11  1  0
 11 12  1  0
 10  2  1  0
 12  2  1  0
  9  5  1  0
 12 10  1  0
  9  6  1  0
  9  7  1  0
  1 13  1  0
  3 14  1  0
  4 15  1  0
  4 16  1  0
  5 17  1  0
  6 18  1  0
  7 19  1  0
  8 20  1  0
  8 21  1  0
 11 22  1  0
 11 23  1  0
 12 24  1  0
M  END
