
     RDKit          2D

103109  0  0  0  0  0  0  0  0999 V2000
   -2.6079   27.9362    5.3859 C   0  0  0  0  0  0  0  0  0  0  0  0
   -1.8745   26.6918    4.9811 C   0  0  0  0  0  0  0  0  0  0  0  0
   -2.5878   25.3724    4.9659 C   0  0  0  0  0  0  0  0  0  0  0  0
   -0.4280   26.7670    4.5916 C   0  0  0  0  0  0  0  0  0  0  0  0
    1.0186   26.8422    4.2020 C   0  0  0  0  0  0  0  0  0  0  0  0
    2.3819   26.4066    3.7530 C   0  0  0  0  0  0  0  0  0  0  0  0
    1.2812   25.3975    3.8955 C   0  0  0  0  0  0  0  0  0  0  0  0
    2.0146   24.1532    3.4907 C   0  0  0  0  0  0  0  0  0  0  0  0
    2.7480   22.9090    3.0859 C   0  0  0  0  0  0  0  0  0  0  0  0
    3.4814   21.6646    2.6811 C   0  0  0  0  0  0  0  0  0  0  0  0
    4.8388   22.2403    2.4053 F   0  0  0  0  0  0  0  0  0  0  0  0
    3.7433   20.2204    2.3721 C   0  0  0  0  0  0  0  0  0  0  0  0
    2.3787   20.6568    2.8163 C   0  0  0  0  0  0  0  0  0  0  0  0
   -0.4401   28.2475    4.8323 C   0  0  0  0  0  0  0  0  0  0  0  0
   -0.9463   29.6130    5.1917 N   0  0  0  0  0  0  0  0  0  0  0  0
   -1.8668   28.4306    5.2577 C   0  0  0  0  0  0  0  0  0  0  0  0
   -3.2936   28.6136    5.6831 C   0  0  0  0  0  0  0  0  0  0  0  0
   -3.3057   30.0941    5.9239 C   0  0  0  0  0  0  0  0  0  0  0  0
   -3.3178   31.5746    6.1646 C   0  0  0  0  0  0  0  0  0  0  0  0
   -3.3299   33.0551    6.4053 C   0  0  0  0  0  0  0  0  0  0  0  0
   -4.7647   31.4995    6.5534 C   0  0  0  0  0  0  0  0  0  0  0  0
   -2.7874   27.2481    5.3237 C   0  0  0  0  0  0  0  0  0  0  0  0
   -4.0822   26.5315    5.5683 N   0  0  0  0  0  0  0  0  0  0  0  0
   -3.8689   25.0759    5.2757 C   0  0  0  0  0  0  0  0  0  0  0  0
   -5.3142   24.9490    5.6566 C   0  0  0  0  0  0  0  0  0  0  0  0
   -5.9826   23.6065    5.6269 C   0  0  0  0  0  0  0  0  0  0  0  0
   -7.4279   23.4798    6.0078 C   0  0  0  0  0  0  0  0  0  0  0  0
   -8.7645   22.8554    6.2788 C   0  0  0  0  0  0  0  0  0  0  0  0
   -7.6172   22.0032    5.8237 C   0  0  0  0  0  0  0  0  0  0  0  0
   -8.2856   20.6606    5.7940 C   0  0  0  0  0  0  0  0  0  0  0  0
   -2.4422   24.8929    4.8503 C   0  0  0  0  0  0  0  0  0  0  0  0
   -1.7738   26.2354    4.8800 C   0  0  0  0  0  0  0  0  0  0  0  0
   -0.5678   25.4698    4.4224 C   0  0  0  0  0  0  0  0  0  0  0  0
    0.8388   25.1846    3.9862 C   0  0  0  0  0  0  0  0  0  0  0  0
    0.7500   23.7024    3.7732 C   0  0  0  0  0  0  0  0  0  0  0  0
    0.4284   26.5870    4.3250 C   0  0  0  0  0  0  0  0  0  0  0  0
    1.7233   27.3036    4.0804 C   0  0  0  0  0  0  0  0  0  0  0  0
    3.0182   28.0202    3.8358 N   0  0  0  0  0  0  0  0  0  0  0  0
    3.1070   29.5024    4.0488 C   0  0  0  0  0  0  0  0  0  0  0  0
    3.1958   30.9845    4.2617 C   0  0  0  0  0  0  0  0  0  0  0  0
    3.2845   32.4666    4.4747 C   0  0  0  0  0  0  0  0  0  0  0  0
    3.3733   33.9488    4.6877 C   0  0  0  0  0  0  0  0  0  0  0  0
    2.1677   34.7141    5.1468 O   0  0  0  0  0  0  0  0  0  0  0  0
   -4.0423   27.6811    5.7430 H   0  0  0  0  0  0  0  0  0  0  0  0
   -1.8947   29.2556    5.4012 H   0  0  0  0  0  0  0  0  0  0  0  0
   -3.3010   24.0528    4.9506 H   0  0  0  0  0  0  0  0  0  0  0  0
   -1.3293   24.6973    4.5069 H   0  0  0  0  0  0  0  0  0  0  0  0
   -3.9815   25.7080    5.4074 H   0  0  0  0  0  0  0  0  0  0  0  0
   -0.2396   25.3067    4.3051 H   0  0  0  0  0  0  0  0  0  0  0  0
    1.2583   28.3130    4.3732 H   0  0  0  0  0  0  0  0  0  0  0  0
    3.3785   27.5236    3.6568 H   0  0  0  0  0  0  0  0  0  0  0  0
    3.6015   25.6635    3.2942 H   0  0  0  0  0  0  0  0  0  0  0  0
   -0.0024   24.6586    4.1325 H   0  0  0  0  0  0  0  0  0  0  0  0
    3.3425   24.8003    3.2301 H   0  0  0  0  0  0  0  0  0  0  0  0
    0.9813   23.0714    3.5994 H   0  0  0  0  0  0  0  0  0  0  0  0
    3.8972   23.8592    2.9245 H   0  0  0  0  0  0  0  0  0  0  0  0
    1.5987   21.9586    3.2474 H   0  0  0  0  0  0  0  0  0  0  0  0
    5.1916   20.2945    1.9890 H   0  0  0  0  0  0  0  0  0  0  0  0
    3.5023   18.7504    2.1961 H   0  0  0  0  0  0  0  0  0  0  0  0
    1.6637   19.3384    2.7946 H   0  0  0  0  0  0  0  0  0  0  0  0
    1.1582   21.4005    3.2717 H   0  0  0  0  0  0  0  0  0  0  0  0
    0.8764   28.9184    4.5744 H   0  0  0  0  0  0  0  0  0  0  0  0
   -0.7070   31.0841    5.3612 H   0  0  0  0  0  0  0  0  0  0  0  0
   -4.7376   28.4611    6.0596 H   0  0  0  0  0  0  0  0  0  0  0  0
   -4.7401   29.8391    6.2806 H   0  0  0  0  0  0  0  0  0  0  0  0
   -1.8590   30.1693    5.5349 H   0  0  0  0  0  0  0  0  0  0  0  0
   -1.8710   31.6497    5.7758 H   0  0  0  0  0  0  0  0  0  0  0  0
   -3.3421   34.5356    6.6461 H   0  0  0  0  0  0  0  0  0  0  0  0
   -4.7964   33.1814    6.6945 H   0  0  0  0  0  0  0  0  0  0  0  0
   -1.8540   33.1098    6.1435 H   0  0  0  0  0  0  0  0  0  0  0  0
   -6.2114   31.4245    6.9422 H   0  0  0  0  0  0  0  0  0  0  0  0
   -4.9535   32.9601    6.8381 H   0  0  0  0  0  0  0  0  0  0  0  0
   -4.9285   30.0207    6.3635 H   0  0  0  0  0  0  0  0  0  0  0  0
   -5.3652   27.1602    6.0252 H   0  0  0  0  0  0  0  0  0  0  0  0
   -4.1330   23.6082    5.1137 H   0  0  0  0  0  0  0  0  0  0  0  0
   -6.0910   26.1647    6.0672 H   0  0  0  0  0  0  0  0  0  0  0  0
   -5.2058   22.3908    5.2164 H   0  0  0  0  0  0  0  0  0  0  0  0
   -7.7405   24.9122    6.3243 H   0  0  0  0  0  0  0  0  0  0  0  0
   -9.5414   24.0711    6.6894 H   0  0  0  0  0  0  0  0  0  0  0  0
   -9.9426   21.9447    6.4599 H   0  0  0  0  0  0  0  0  0  0  0  0
   -6.2376   21.6171    5.3788 H   0  0  0  0  0  0  0  0  0  0  0  0
   -8.9539   19.3180    5.7643 H   0  0  0  0  0  0  0  0  0  0  0  0
   -9.5694   21.2898    6.2474 H   0  0  0  0  0  0  0  0  0  0  0  0
   -7.0926   19.8725    5.3403 H   0  0  0  0  0  0  0  0  0  0  0  0
   -2.6565   23.4188    4.6734 H   0  0  0  0  0  0  0  0  0  0  0  0
   -1.3761   23.9380    4.4012 H   0  0  0  0  0  0  0  0  0  0  0  0
   -0.9961   27.5179    4.8697 H   0  0  0  0  0  0  0  0  0  0  0  0
   -0.9790   24.0319    4.3060 H   0  0  0  0  0  0  0  0  0  0  0  0
    2.2854   25.2339    3.5925 H   0  0  0  0  0  0  0  0  0  0  0  0
    0.4859   22.2348    3.6112 H   0  0  0  0  0  0  0  0  0  0  0  0
    2.1296   23.3164    3.3283 H   0  0  0  0  0  0  0  0  0  0  0  0
   -0.6724   23.3712    4.1150 H   0  0  0  0  0  0  0  0  0  0  0  0
    0.0424   27.9976    4.6583 H   0  0  0  0  0  0  0  0  0  0  0  0
    2.7896   26.3489    3.6315 H   0  0  0  0  0  0  0  0  0  0  0  0
    1.4107   28.7362    4.3966 H   0  0  0  0  0  0  0  0  0  0  0  0
    4.2242   27.2547    3.3782 H   0  0  0  0  0  0  0  0  0  0  0  0
    1.6784   29.5223    4.5058 H   0  0  0  0  0  0  0  0  0  0  0  0
    4.5355   29.4825    3.5917 H   0  0  0  0  0  0  0  0  0  0  0  0
    4.6255   30.9640    3.8085 H   0  0  0  0  0  0  0  0  0  0  0  0
    1.7660   31.0050    4.7150 H   0  0  0  0  0  0  0  0  0  0  0  0
    4.7522   32.4228    4.1680 H   0  0  0  0  0  0  0  0  0  0  0  0
    1.8169   32.5105    4.7814 H   0  0  0  0  0  0  0  0  0  0  0  0
    4.6677   34.6657    4.4416 H   0  0  0  0  0  0  0  0  0  0  0  0
  1  2  2  3
  2  3  1  0
  2  4  1  0
  4  5  1  0
  5  6  1  0
  6  7  1  0
  7  8  1  0
  8  9  1  0
  9 10  1  0
 10 11  1  0
 10 12  1  0
 12 13  1  0
  4 14  1  0
 14 15  1  0
 16 15  1  6
 16 17  1  0
 17 18  1  0
 18 19  1  0
 19 20  1  0
 19 21  1  0
 17 22  1  0
 22 23  1  0
 23 24  1  0
 24 25  1  0
 25 26  2  3
 26 27  1  0
 27 28  1  0
 28 29  1  0
 29 30  1  0
 24 31  1  0
 31 32  1  0
 32 33  1  0
 33 34  1  0
 34 35  1  0
 34 36  1  0
 36 37  1  0
 37 38  1  0
 38 39  1  0
 39 40  1  0
 40 41  1  0
 41 42  1  0
 42 43  2  0
  7  5  1  0
 13 10  1  0
 16 14  1  0
 32 22  1  0
 36 33  1  0
 22 16  1  0
 29 27  1  0
  1 44  1  0
  1 45  1  0
  3 46  1  0
  3 47  1  0
  3 48  1  0
  4 49  1  1
  5 50  1  6
  6 51  1  0
  6 52  1  0
  7 53  1  1
  8 54  1  0
  8 55  1  0
  9 56  1  0
  9 57  1  0
 12 58  1  0
 12 59  1  0
 13 60  1  0
 13 61  1  0
 14 62  1  1
 15 63  1  0
 17 64  1  6
 18 65  1  0
 18 66  1  0
 19 67  1  0
 20 68  1  0
 20 69  1  0
 20 70  1  0
 21 71  1  0
 21 72  1  0
 21 73  1  0
 23 74  1  0
 24 75  1  1
 25 76  1  0
 26 77  1  0
 27 78  1  1
 28 79  1  0
 28 80  1  0
 29 81  1  1
 30 82  1  0
 30 83  1  0
 30 84  1  0
 31 85  1  0
 31 86  1  0
 32 87  1  6
 33 88  1  1
 34 89  1  6
 35 90  1  0
 35 91  1  0
 35 92  1  0
 36 93  1  1
 37 94  1  0
 37 95  1  0
 38 96  1  0
 39 97  1  0
 39 98  1  0
 40 99  1  0
 40100  1  0
 41101  1  0
 41102  1  0
 42103  1  0
M  END
