
     RDKit          2D

 36 39  0  0  0  0  0  0  0  0999 V2000
   22.2670  -19.4466   -8.1003 O   0  0  0  0  0  0  0  0  0  0  0  0
   20.8792  -19.8793   -8.4704 C   0  0  0  0  0  0  0  0  0  0  0  0
   20.6287  -18.9766   -9.6419 C   0  0  0  0  0  0  0  0  0  0  0  0
   19.5718  -19.9462   -9.2027 C   0  0  0  0  0  0  0  0  0  0  0  0
   18.8864  -21.0224   -8.4140 C   0  0  0  0  0  0  0  0  0  0  0  0
   18.2009  -22.0985   -7.6253 C   0  0  0  0  0  0  0  0  0  0  0  0
   17.5154  -23.1747   -6.8367 C   0  0  0  0  0  0  0  0  0  0  0  0
   16.4581  -24.1435   -6.3968 C   0  0  0  0  0  0  0  0  0  0  0  0
   16.2069  -23.2395   -7.5671 C   0  0  0  0  0  0  0  0  0  0  0  0
   14.8181  -23.6704   -7.9356 C   0  0  0  0  0  0  0  0  0  0  0  0
   13.4293  -24.1011   -8.3040 C   0  0  0  0  0  0  0  0  0  0  0  0
   12.0406  -24.5319   -8.6724 C   0  0  0  0  0  0  0  0  0  0  0  0
   11.7893  -23.6279   -9.8428 C   0  0  0  0  0  0  0  0  0  0  0  0
   10.4808  -23.6928  -10.5732 O   0  0  0  0  0  0  0  0  0  0  0  0
   10.7320  -24.5968   -9.4029 C   0  0  0  0  0  0  0  0  0  0  0  0
    9.6748  -25.5657   -8.9631 O   0  0  0  0  0  0  0  0  0  0  0  0
   22.9525  -18.3705   -8.8890 H   0  0  0  0  0  0  0  0  0  0  0  0
   20.8226  -20.7920   -7.4773 H   0  0  0  0  0  0  0  0  0  0  0  0
   19.9264  -18.3331  -10.8007 H   0  0  0  0  0  0  0  0  0  0  0  0
   21.9295  -18.2305   -9.6787 H   0  0  0  0  0  0  0  0  0  0  0  0
   18.5025  -19.6395  -10.2089 H   0  0  0  0  0  0  0  0  0  0  0  0
   19.8894  -21.2498   -7.5395 H   0  0  0  0  0  0  0  0  0  0  0  0
   17.6793  -20.9000   -9.2961 H   0  0  0  0  0  0  0  0  0  0  0  0
   17.1952  -21.8662   -8.4955 H   0  0  0  0  0  0  0  0  0  0  0  0
   19.4109  -22.2264   -6.7482 H   0  0  0  0  0  0  0  0  0  0  0  0
   18.5858  -23.4835   -5.8324 H   0  0  0  0  0  0  0  0  0  0  0  0
   17.1614  -24.7889   -5.2397 H   0  0  0  0  0  0  0  0  0  0  0  0
   15.3487  -24.8951   -6.2332 H   0  0  0  0  0  0  0  0  0  0  0  0
   16.2630  -22.3259   -8.5595 H   0  0  0  0  0  0  0  0  0  0  0  0
   14.6745  -24.6047   -6.9718 H   0  0  0  0  0  0  0  0  0  0  0  0
   14.8083  -22.6773   -9.0597 H   0  0  0  0  0  0  0  0  0  0  0  0
   13.4186  -23.1064   -9.4266 H   0  0  0  0  0  0  0  0  0  0  0  0
   13.4401  -25.0959   -7.1814 H   0  0  0  0  0  0  0  0  0  0  0  0
   11.8095  -25.5856   -7.6301 H   0  0  0  0  0  0  0  0  0  0  0  0
   12.8466  -22.6590  -10.2826 H   0  0  0  0  0  0  0  0  0  0  0  0
    8.4361  -25.7499   -9.7886 H   0  0  0  0  0  0  0  0  0  0  0  0
  1  2  1  0
  2  3  1  0
  3  4  1  0
  4  5  1  0
  5  6  1  0
  6  7  1  0
  7  8  1  0
  8  9  1  0
  9 10  1  0
 10 11  1  0
 11 12  1  0
 12 13  1  0
 13 14  1  0
 14 15  1  0
 15 16  1  0
  4  2  1  0
  9  7  1  0
 15 12  1  0
 15 13  1  0
  1 17  1  0
  2 18  1  0
  3 19  1  0
  3 20  1  0
  4 21  1  0
  5 22  1  0
  5 23  1  0
  6 24  1  0
  6 25  1  0
  7 26  1  0
  8 27  1  0
  8 28  1  0
  9 29  1  0
 10 30  1  0
 10 31  1  0
 11 32  1  0
 11 33  1  0
 12 34  1  0
 13 35  1  0
 16 36  1  0
M  END
