
     RDKit          2D

 91 94  0  0  0  0  0  0  0  0999 V2000
   25.4082  -25.0048  -17.7104 C   0  0  0  0  0  0  0  0  0  0  0  0
   25.8059  -23.6917  -17.1043 C   0  0  0  0  0  0  0  0  0  0  0  0
   25.8955  -23.5500  -15.6137 C   0  0  0  0  0  0  0  0  0  0  0  0
   25.9852  -23.4083  -14.1231 C   0  0  0  0  0  0  0  0  0  0  0  0
   26.0749  -23.2666  -12.6325 C   0  0  0  0  0  0  0  0  0  0  0  0
   26.1647  -23.1250  -11.1420 C   0  0  0  0  0  0  0  0  0  0  0  0
   24.4554  -23.1332  -15.5666 C   0  0  0  0  0  0  0  0  0  0  0  0
   23.0152  -22.7165  -15.5196 C   0  0  0  0  0  0  0  0  0  0  0  0
   21.5750  -22.2998  -15.4725 C   0  0  0  0  0  0  0  0  0  0  0  0
   21.9134  -22.2329  -14.0127 C   0  0  0  0  0  0  0  0  0  0  0  0
   21.2709  -21.9020  -12.6983 C   0  0  0  0  0  0  0  0  0  0  0  0
   22.6930  -22.2749  -12.4003 O   0  0  0  0  0  0  0  0  0  0  0  0
   23.1919  -22.2588  -10.9858 C   0  0  0  0  0  0  0  0  0  0  0  0
   23.6909  -22.2429   -9.5713 C   0  0  0  0  0  0  0  0  0  0  0  0
   19.9483  -21.4620  -12.1442 C   0  0  0  0  0  0  0  0  0  0  0  0
   18.5642  -21.1188  -12.6098 C   0  0  0  0  0  0  0  0  0  0  0  0
   17.7666  -21.0330  -13.8772 C   0  0  0  0  0  0  0  0  0  0  0  0
   16.8434  -20.6441  -12.7606 C   0  0  0  0  0  0  0  0  0  0  0  0
   15.4214  -20.2712  -13.0586 C   0  0  0  0  0  0  0  0  0  0  0  0
   17.3424  -20.6281  -11.3461 C   0  0  0  0  0  0  0  0  0  0  0  0
   15.9894  -20.1850  -10.8739 O   0  0  0  0  0  0  0  0  0  0  0  0
   17.8413  -20.6121   -9.9316 C   0  0  0  0  0  0  0  0  0  0  0  0
   19.2820  -21.0280   -9.9700 Br  0  0  0  0  0  0  0  0  0  0  0  0
   17.8471  -20.4466   -8.4408 C   0  0  0  0  0  0  0  0  0  0  0  0
   19.2691  -20.8195   -8.1428 O   0  0  0  0  0  0  0  0  0  0  0  0
   16.5946  -20.1762   -9.2205 C   0  0  0  0  0  0  0  0  0  0  0  0
   15.6715  -19.7873   -8.1040 C   0  0  0  0  0  0  0  0  0  0  0  0
   14.4248  -19.3514   -7.3929 C   0  0  0  0  0  0  0  0  0  0  0  0
   14.4189  -19.5169   -8.8838 C   0  0  0  0  0  0  0  0  0  0  0  0
   12.9969  -19.1440   -9.1817 C   0  0  0  0  0  0  0  0  0  0  0  0
   11.5748  -18.7711   -9.4797 N   0  0  0  0  0  0  0  0  0  0  0  0
   10.5190  -19.8345   -9.5470 C   0  0  0  0  0  0  0  0  0  0  0  0
    9.4632  -20.8979   -9.6144 C   0  0  0  0  0  0  0  0  0  0  0  0
   17.9283  -21.2446  -15.3533 C   0  0  0  0  0  0  0  0  0  0  0  0
   18.9739  -21.6548  -16.3475 C   0  0  0  0  0  0  0  0  0  0  0  0
   20.4141  -22.0715  -16.3946 C   0  0  0  0  0  0  0  0  0  0  0  0
   21.7368  -22.5115  -16.9486 C   0  0  0  0  0  0  0  0  0  0  0  0
   25.3185  -25.1465  -19.2010 H   0  0  0  0  0  0  0  0  0  0  0  0
   25.1001  -26.1764  -16.8258 H   0  0  0  0  0  0  0  0  0  0  0  0
   26.0773  -22.6312  -18.1299 H   0  0  0  0  0  0  0  0  0  0  0  0
   27.3357  -23.9667  -15.6608 H   0  0  0  0  0  0  0  0  0  0  0  0
   25.3420  -22.0562  -14.2129 H   0  0  0  0  0  0  0  0  0  0  0  0
   26.3686  -24.1905  -13.9632 H   0  0  0  0  0  0  0  0  0  0  0  0
   27.4916  -23.7579  -12.6711 H   0  0  0  0  0  0  0  0  0  0  0  0
   24.6582  -22.7754  -12.5940 H   0  0  0  0  0  0  0  0  0  0  0  0
   26.2544  -22.9833   -9.6514 H   0  0  0  0  0  0  0  0  0  0  0  0
   27.5844  -23.6072  -11.1816 H   0  0  0  0  0  0  0  0  0  0  0  0
   24.7449  -22.6427  -11.1023 H   0  0  0  0  0  0  0  0  0  0  0  0
   24.4038  -23.0217  -14.6895 H   0  0  0  0  0  0  0  0  0  0  0  0
   24.1915  -23.2206  -17.0407 H   0  0  0  0  0  0  0  0  0  0  0  0
   23.0612  -22.8181  -16.3089 H   0  0  0  0  0  0  0  0  0  0  0  0
   23.2797  -22.6270  -14.0458 H   0  0  0  0  0  0  0  0  0  0  0  0
   22.6181  -22.4667  -14.3028 H   0  0  0  0  0  0  0  0  0  0  0  0
   23.1742  -22.5073  -13.2478 H   0  0  0  0  0  0  0  0  0  0  0  0
   21.4441  -21.7850  -11.2129 H   0  0  0  0  0  0  0  0  0  0  0  0
   21.9080  -21.8237  -10.3439 H   0  0  0  0  0  0  0  0  0  0  0  0
   24.5468  -22.6954  -11.4588 H   0  0  0  0  0  0  0  0  0  0  0  0
   24.1898  -22.2268   -8.1568 H   0  0  0  0  0  0  0  0  0  0  0  0
   25.0456  -22.6799  -10.0442 H   0  0  0  0  0  0  0  0  0  0  0  0
   22.3361  -21.8058   -9.0984 H   0  0  0  0  0  0  0  0  0  0  0  0
   20.7390  -21.5454  -10.8722 H   0  0  0  0  0  0  0  0  0  0  0  0
   19.4761  -21.1709  -10.7505 H   0  0  0  0  0  0  0  0  0  0  0  0
   18.5700  -20.9533  -11.1189 H   0  0  0  0  0  0  0  0  0  0  0  0
   17.3261  -20.6837  -11.8835 H   0  0  0  0  0  0  0  0  0  0  0  0
   16.3801  -20.6881  -14.3345 H   0  0  0  0  0  0  0  0  0  0  0  0
   14.4983  -19.8823  -11.9420 H   0  0  0  0  0  0  0  0  0  0  0  0
   14.9225  -20.2872  -14.4731 H   0  0  0  0  0  0  0  0  0  0  0  0
   18.7461  -21.0659  -11.6423 H   0  0  0  0  0  0  0  0  0  0  0  0
   15.7449  -19.9495   -9.4127 H   0  0  0  0  0  0  0  0  0  0  0  0
   17.5282  -20.1937   -6.9971 H   0  0  0  0  0  0  0  0  0  0  0  0
   19.7681  -20.8034   -6.7283 H   0  0  0  0  0  0  0  0  0  0  0  0
   15.5353  -19.9908  -10.2663 H   0  0  0  0  0  0  0  0  0  0  0  0
   16.4622  -19.8706   -6.8320 H   0  0  0  0  0  0  0  0  0  0  0  0
   14.9237  -19.3354   -5.9784 H   0  0  0  0  0  0  0  0  0  0  0  0
   13.0466  -18.9131   -6.9950 H   0  0  0  0  0  0  0  0  0  0  0  0
   14.7379  -19.7698  -10.3275 H   0  0  0  0  0  0  0  0  0  0  0  0
   13.2625  -19.3038  -10.6493 H   0  0  0  0  0  0  0  0  0  0  0  0
   12.5599  -18.9399   -7.7614 H   0  0  0  0  0  0  0  0  0  0  0  0
   11.2087  -17.3350   -9.7102 H   0  0  0  0  0  0  0  0  0  0  0  0
   10.4700  -19.8809   -8.0486 H   0  0  0  0  0  0  0  0  0  0  0  0
   10.5680  -19.7882  -11.0455 H   0  0  0  0  0  0  0  0  0  0  0  0
    8.4075  -21.9613   -9.6819 H   0  0  0  0  0  0  0  0  0  0  0  0
    9.1981  -20.7277   -8.1479 H   0  0  0  0  0  0  0  0  0  0  0  0
    9.7284  -21.0681  -11.0810 H   0  0  0  0  0  0  0  0  0  0  0  0
   16.4876  -20.8287  -15.3149 H   0  0  0  0  0  0  0  0  0  0  0  0
   17.1235  -21.1562  -16.6161 H   0  0  0  0  0  0  0  0  0  0  0  0
   17.8181  -21.4287  -17.2764 H   0  0  0  0  0  0  0  0  0  0  0  0
   19.1273  -21.8642  -17.8248 H   0  0  0  0  0  0  0  0  0  0  0  0
   20.2492  -22.1909  -17.8807 H   0  0  0  0  0  0  0  0  0  0  0  0
   21.3984  -22.5784  -18.4085 H   0  0  0  0  0  0  0  0  0  0  0  0
   23.1553  -22.9423  -17.1771 H   0  0  0  0  0  0  0  0  0  0  0  0
  1  2  2  3
  2  3  1  0
  3  4  1  0
  4  5  1  0
  5  6  1  0
  3  7  1  0
  7  8  1  0
  8  9  1  0
  9 10  1  0
 10 11  1  0
 11 12  1  0
 12 13  1  0
 13 14  1  0
 11 15  1  0
 15 16  1  0
 16 17  1  0
 17 18  1  0
 18 19  2  3
 18 20  1  0
 20 21  1  0
 20 22  1  0
 22 23  1  0
 22 24  1  0
 24 25  1  0
 24 26  1  0
 26 27  1  0
 27 28  1  0
 28 29  1  0
 29 30  1  0
 30 31  1  0
 31 32  1  0
 32 33  1  0
 17 34  1  0
 34 35  1  0
 35 36  1  0
 36 37  1  0
 36  9  1  0
 37  9  1  0
 26 22  1  0
 29 27  1  0
  1 38  1  0
  1 39  1  0
  2 40  1  0
  3 41  1  0
  4 42  1  0
  4 43  1  0
  5 44  1  0
  5 45  1  0
  6 46  1  0
  6 47  1  0
  6 48  1  0
  7 49  1  0
  7 50  1  0
  8 51  1  0
  8 52  1  0
 10 53  1  0
 10 54  1  0
 11 55  1  0
 13 56  1  0
 13 57  1  0
 14 58  1  0
 14 59  1  0
 14 60  1  0
 15 61  1  0
 15 62  1  0
 16 63  1  0
 16 64  1  0
 17 65  1  0
 19 66  1  0
 19 67  1  0
 20 68  1  0
 21 69  1  0
 24 70  1  0
 25 71  1  0
 26 72  1  0
 27 73  1  0
 28 74  1  0
 28 75  1  0
 29 76  1  0
 30 77  1  0
 30 78  1  0
 31 79  1  0
 32 80  1  0
 32 81  1  0
 33 82  1  0
 33 83  1  0
 33 84  1  0
 34 85  1  0
 34 86  1  0
 35 87  1  0
 35 88  1  0
 36 89  1  0
 37 90  1  0
 37 91  1  0
M  END
