
     RDKit          2D

 56 60  0  0  0  0  0  0  0  0999 V2000
    3.2538   26.2543   -0.6520 C   0  0  0  0  0  0  0  0  0  0  0  0
    3.3913   26.8070    0.7357 C   0  0  0  0  0  0  0  0  0  0  0  0
    2.3814   25.9619    1.4540 C   0  0  0  0  0  0  0  0  0  0  0  0
    1.5411   25.4108    2.5675 C   0  0  0  0  0  0  0  0  0  0  0  0
    0.7008   24.8596    3.6811 C   0  0  0  0  0  0  0  0  0  0  0  0
   -0.1395   24.3084    4.7948 C   0  0  0  0  0  0  0  0  0  0  0  0
   -0.9799   23.7572    5.9083 C   0  0  0  0  0  0  0  0  0  0  0  0
   -1.8202   23.2061    7.0219 C   0  0  0  0  0  0  0  0  0  0  0  0
   -2.6605   22.6549    8.1354 O   0  0  0  0  0  0  0  0  0  0  0  0
    0.0566   23.9033    2.7217 C   0  0  0  0  0  0  0  0  0  0  0  0
   -0.1651   23.2864    1.3725 C   0  0  0  0  0  0  0  0  0  0  0  0
   -1.1042   22.1800    0.9928 C   0  0  0  0  0  0  0  0  0  0  0  0
   -2.0535   21.4174    1.8687 C   0  0  0  0  0  0  0  0  0  0  0  0
   -2.8655   20.3595    1.1819 O   0  0  0  0  0  0  0  0  0  0  0  0
   -2.2983   21.5727    3.3404 O   0  0  0  0  0  0  0  0  0  0  0  0
   -1.6541   22.5290    4.2998 C   0  0  0  0  0  0  0  0  0  0  0  0
   -0.6061   23.5662    4.0245 C   0  0  0  0  0  0  0  0  0  0  0  0
   -2.6472   21.6807    5.0375 C   0  0  0  0  0  0  0  0  0  0  0  0
   -2.3123   22.3971    6.3121 C   0  0  0  0  0  0  0  0  0  0  0  0
   -1.5256   23.4416    7.0471 C   0  0  0  0  0  0  0  0  0  0  0  0
   -1.3191   23.2453    5.5745 C   0  0  0  0  0  0  0  0  0  0  0  0
    3.1616   26.9996    2.2054 C   0  0  0  0  0  0  0  0  0  0  0  0
    3.9418   28.0371    2.9569 C   0  0  0  0  0  0  0  0  0  0  0  0
    2.9318   27.1921    3.6752 C   0  0  0  0  0  0  0  0  0  0  0  0
    3.1161   25.7015   -2.0396 H   0  0  0  0  0  0  0  0  0  0  0  0
    4.3039   27.2094   -1.1366 H   0  0  0  0  0  0  0  0  0  0  0  0
    2.1946   25.2388   -0.3401 H   0  0  0  0  0  0  0  0  0  0  0  0
    4.4491   27.8440    0.4993 H   0  0  0  0  0  0  0  0  0  0  0  0
    1.7822   25.0356    0.4376 H   0  0  0  0  0  0  0  0  0  0  0  0
    0.7276   25.1484    1.3349 H   0  0  0  0  0  0  0  0  0  0  0  0
    2.4788   25.7484    3.6886 H   0  0  0  0  0  0  0  0  0  0  0  0
    1.3450   25.8159    4.6405 H   0  0  0  0  0  0  0  0  0  0  0  0
    0.5032   25.2661    5.7538 H   0  0  0  0  0  0  0  0  0  0  0  0
   -0.9666   23.2459    4.1337 H   0  0  0  0  0  0  0  0  0  0  0  0
   -0.2377   24.7732    6.7249 H   0  0  0  0  0  0  0  0  0  0  0  0
   -1.8087   22.6964    5.2467 H   0  0  0  0  0  0  0  0  0  0  0  0
   -2.8931   22.4301    6.3171 H   0  0  0  0  0  0  0  0  0  0  0  0
   -0.9239   23.8684    8.0260 H   0  0  0  0  0  0  0  0  0  0  0  0
   -2.5229   23.2076    9.5231 H   0  0  0  0  0  0  0  0  0  0  0  0
    1.0060   24.6660    1.8459 H   0  0  0  0  0  0  0  0  0  0  0  0
    0.8547   24.1970    0.7553 H   0  0  0  0  0  0  0  0  0  0  0  0
    0.2021   23.2663   -0.0817 H   0  0  0  0  0  0  0  0  0  0  0  0
   -0.5454   22.3857   -0.3839 H   0  0  0  0  0  0  0  0  0  0  0  0
   -1.7483   21.2237    0.0334 H   0  0  0  0  0  0  0  0  0  0  0  0
   -0.7248   23.8543    5.4918 H   0  0  0  0  0  0  0  0  0  0  0  0
    0.1925   24.6171    4.7371 H   0  0  0  0  0  0  0  0  0  0  0  0
   -3.6403   20.8325    5.7752 H   0  0  0  0  0  0  0  0  0  0  0  0
   -2.9822   20.9643    3.7629 H   0  0  0  0  0  0  0  0  0  0  0  0
   -3.1849   21.7632    7.3546 H   0  0  0  0  0  0  0  0  0  0  0  0
   -1.8383   23.5226    8.5119 H   0  0  0  0  0  0  0  0  0  0  0  0
   -0.6034   24.5440    7.4762 H   0  0  0  0  0  0  0  0  0  0  0  0
   -0.3188   24.3526    5.7269 H   0  0  0  0  0  0  0  0  0  0  0  0
    4.7821   28.5883    1.8432 H   0  0  0  0  0  0  0  0  0  0  0  0
    4.4302   28.8833    4.0950 H   0  0  0  0  0  0  0  0  0  0  0  0
    3.0695   27.7448    5.0628 H   0  0  0  0  0  0  0  0  0  0  0  0
    1.8763   26.2089    4.0866 H   0  0  0  0  0  0  0  0  0  0  0  0
  1  2  1  0
  2  3  1  0
  3  4  1  0
  4  5  1  0
  5  6  1  0
  6  7  1  0
  7  8  1  0
  8  9  1  0
  5 10  1  0
 10 11  1  0
 11 12  1  0
 12 13  1  0
 13 14  2  0
 13 15  1  0
 15 16  1  0
 16 17  1  0
 16 18  1  0
 18 19  1  0
 19 20  1  0
 20 21  1  0
  3 22  1  0
 22 23  1  0
 23 24  1  0
 22  2  1  0
 17 10  1  0
 21 19  1  0
 24 22  1  0
 21 16  1  0
  1 25  1  0
  1 26  1  0
  1 27  1  0
  2 28  1  0
  3 29  1  0
  4 30  1  0
  4 31  1  0
  5 32  1  0
  6 33  1  0
  6 34  1  0
  7 35  1  0
  7 36  1  0
  8 37  1  0
  8 38  1  0
  9 39  1  0
 10 40  1  0
 11 41  1  0
 11 42  1  0
 12 43  1  0
 12 44  1  0
 17 45  1  0
 17 46  1  0
 18 47  1  0
 18 48  1  0
 19 49  1  0
 20 50  1  0
 20 51  1  0
 21 52  1  0
 23 53  1  0
 23 54  1  0
 24 55  1  0
 24 56  1  0
M  END
