
     RDKit          2D

 63 65  0  0  0  0  0  0  0  0999 V2000
   -0.0504   27.0481    8.3057 C   0  0  0  0  0  0  0  0  0  0  0  0
   -0.4517   25.8629    9.1329 C   0  0  0  0  0  0  0  0  0  0  0  0
   -0.8530   24.6777    9.9601 C   0  0  0  0  0  0  0  0  0  0  0  0
    0.8054   25.1530    8.7256 C   0  0  0  0  0  0  0  0  0  0  0  0
    2.0624   24.4431    8.3183 C   0  0  0  0  0  0  0  0  0  0  0  0
    3.3194   23.7331    7.9110 C   0  0  0  0  0  0  0  0  0  0  0  0
    4.5765   23.0232    7.5037 C   0  0  0  0  0  0  0  0  0  0  0  0
    5.8335   22.3133    7.0964 C   0  0  0  0  0  0  0  0  0  0  0  0
    6.8626   21.2293    6.9709 C   0  0  0  0  0  0  0  0  0  0  0  0
    5.6136   20.9893    7.7663 C   0  0  0  0  0  0  0  0  0  0  0  0
    3.7621   24.9507    7.1550 C   0  0  0  0  0  0  0  0  0  0  0  0
    4.2047   26.1683    6.3989 C   0  0  0  0  0  0  0  0  0  0  0  0
    2.8798   26.5418    6.9948 C   0  0  0  0  0  0  0  0  0  0  0  0
    2.0160   27.7678    6.9756 C   0  0  0  0  0  0  0  0  0  0  0  0
    2.1192   29.1284    6.3526 C   0  0  0  0  0  0  0  0  0  0  0  0
    3.1291   29.8264    5.4906 O   0  0  0  0  0  0  0  0  0  0  0  0
    4.4539   29.4529    4.8947 C   0  0  0  0  0  0  0  0  0  0  0  0
    5.6530   29.8099    4.0671 C   0  0  0  0  0  0  0  0  0  0  0  0
    6.5837   30.6120    3.2067 C   0  0  0  0  0  0  0  0  0  0  0  0
    5.2969   31.2161    3.6854 C   0  0  0  0  0  0  0  0  0  0  0  0
    5.3178   28.2268    4.9139 C   0  0  0  0  0  0  0  0  0  0  0  0
    5.2145   26.8663    5.5369 C   0  0  0  0  0  0  0  0  0  0  0  0
    5.7877   25.5013    5.7785 C   0  0  0  0  0  0  0  0  0  0  0  0
    0.1923   28.3089    7.5301 H   0  0  0  0  0  0  0  0  0  0  0  0
   -0.7500   27.3368    8.5561 H   0  0  0  0  0  0  0  0  0  0  0  0
   -0.6979   27.4903    8.4489 H   0  0  0  0  0  0  0  0  0  0  0  0
   -1.7087   26.5728    9.5402 H   0  0  0  0  0  0  0  0  0  0  0  0
   -1.2543   23.4925   10.7873 H   0  0  0  0  0  0  0  0  0  0  0  0
   -1.7204   25.4194   10.9335 H   0  0  0  0  0  0  0  0  0  0  0  0
   -1.6226   25.7084   10.7318 H   0  0  0  0  0  0  0  0  0  0  0  0
    0.5258   23.8629    9.4380 H   0  0  0  0  0  0  0  0  0  0  0  0
    0.2193   24.0360    9.5373 H   0  0  0  0  0  0  0  0  0  0  0  0
    2.5057   25.6612    7.5635 H   0  0  0  0  0  0  0  0  0  0  0  0
    1.6190   23.2250    9.0731 H   0  0  0  0  0  0  0  0  0  0  0  0
    2.8768   22.5156    8.6671 H   0  0  0  0  0  0  0  0  0  0  0  0
    3.9799   21.8984    8.2967 H   0  0  0  0  0  0  0  0  0  0  0  0
    5.1730   24.1482    6.7107 H   0  0  0  0  0  0  0  0  0  0  0  0
    6.6265   23.2717    6.2582 H   0  0  0  0  0  0  0  0  0  0  0  0
    7.8764   21.9302    6.1160 H   0  0  0  0  0  0  0  0  0  0  0  0
    7.5395   19.9017    7.1423 H   0  0  0  0  0  0  0  0  0  0  0  0
    5.8568   19.5785    8.2139 H   0  0  0  0  0  0  0  0  0  0  0  0
    4.2916   21.0683    8.4706 H   0  0  0  0  0  0  0  0  0  0  0  0
    2.6009   25.7192    7.7127 H   0  0  0  0  0  0  0  0  0  0  0  0
    4.9685   24.3364    6.5092 H   0  0  0  0  0  0  0  0  0  0  0  0
    4.9582   24.8758    6.5081 H   0  0  0  0  0  0  0  0  0  0  0  0
    1.7595   26.0211    7.8457 H   0  0  0  0  0  0  0  0  0  0  0  0
    2.7996   25.1749    7.6074 H   0  0  0  0  0  0  0  0  0  0  0  0
    0.7629   28.4807    7.3900 H   0  0  0  0  0  0  0  0  0  0  0  0
    1.1361   26.9060    7.8319 H   0  0  0  0  0  0  0  0  0  0  0  0
    1.5461   30.4934    6.1110 H   0  0  0  0  0  0  0  0  0  0  0  0
    0.7928   29.3089    7.0294 H   0  0  0  0  0  0  0  0  0  0  0  0
    4.0533   30.8544    4.5403 H   0  0  0  0  0  0  0  0  0  0  0  0
    6.5516   28.6088    4.0561 H   0  0  0  0  0  0  0  0  0  0  0  0
    7.6796   29.6084    3.0021 H   0  0  0  0  0  0  0  0  0  0  0  0
    7.1339   31.7628    2.4174 H   0  0  0  0  0  0  0  0  0  0  0  0
    5.4001   32.5767    3.0624 H   0  0  0  0  0  0  0  0  0  0  0  0
    3.9684   31.5179    4.3131 H   0  0  0  0  0  0  0  0  0  0  0  0
    6.6154   27.6677    4.4104 H   0  0  0  0  0  0  0  0  0  0  0  0
    6.4125   28.7927    4.0586 H   0  0  0  0  0  0  0  0  0  0  0  0
    6.5410   26.6858    4.8601 H   0  0  0  0  0  0  0  0  0  0  0  0
    6.5025   24.1900    5.9175 H   0  0  0  0  0  0  0  0  0  0  0  0
    6.9866   25.8582    4.9509 H   0  0  0  0  0  0  0  0  0  0  0  0
    4.6674   24.9807    6.6294 H   0  0  0  0  0  0  0  0  0  0  0  0
  1  2  1  0
  2  3  1  0
  2  4  1  0
  4  5  1  0
  5  6  1  0
  6  7  1  0
  7  8  1  0
  8  9  1  0
  9 10  1  0
  6 11  1  0
 11 12  1  0
 12 13  1  0
 13 14  1  0
 14 15  1  0
 15 16  1  0
 16 17  1  0
 17 18  1  0
 18 19  1  0
 19 20  1  0
 17 21  1  0
 21 22  1  0
 22 23  1  0
 10  8  1  0
 22 12  1  0
 20 18  1  0
  1 24  1  0
  1 25  1  0
  1 26  1  0
  2 27  1  0
  3 28  1  0
  3 29  1  0
  3 30  1  0
  4 31  1  0
  4 32  1  0
  5 33  1  0
  5 34  1  0
  6 35  1  0
  7 36  1  0
  7 37  1  0
  8 38  1  0
  9 39  1  0
  9 40  1  0
 10 41  1  0
 10 42  1  0
 11 43  1  0
 11 44  1  0
 12 45  1  0
 13 46  1  0
 13 47  1  0
 14 48  1  0
 14 49  1  0
 15 50  1  0
 15 51  1  0
 17 52  1  0
 18 53  1  0
 19 54  1  0
 19 55  1  0
 20 56  1  0
 20 57  1  0
 21 58  1  0
 21 59  1  0
 22 60  1  0
 23 61  1  0
 23 62  1  0
 23 63  1  0
M  END
