
     RDKit          2D

 54 57  0  0  0  0  0  0  0  0999 V2000
    2.3670   24.4688    6.7243 C   0  0  0  0  0  0  0  0  0  0  0  0
    2.6464   25.9268    6.5094 C   0  0  0  0  0  0  0  0  0  0  0  0
    2.9257   27.3848    6.2944 C   0  0  0  0  0  0  0  0  0  0  0  0
    1.2193   26.2491    6.8404 C   0  0  0  0  0  0  0  0  0  0  0  0
    1.3885   27.6267    7.4091 C   0  0  0  0  0  0  0  0  0  0  0  0
    0.0231   27.0109    7.3289 C   0  0  0  0  0  0  0  0  0  0  0  0
   -1.0572   26.0098    7.0448 C   0  0  0  0  0  0  0  0  0  0  0  0
   -2.1375   25.0086    6.7606 C   0  0  0  0  0  0  0  0  0  0  0  0
   -3.5029   24.3928    6.6804 C   0  0  0  0  0  0  0  0  0  0  0  0
   -3.3336   25.7705    7.2492 C   0  0  0  0  0  0  0  0  0  0  0  0
   -4.7607   26.0927    7.5802 C   0  0  0  0  0  0  0  0  0  0  0  0
   -6.1878   26.4150    7.9111 C   0  0  0  0  0  0  0  0  0  0  0  0
   -7.6574   26.1230    7.9840 C   0  0  0  0  0  0  0  0  0  0  0  0
   -8.7595   26.9957    8.5075 N   0  0  0  0  0  0  0  0  0  0  0  0
   -8.6641   28.3757    9.0873 C   0  0  0  0  0  0  0  0  0  0  0  0
   -7.4433   29.2241    9.2869 N   0  0  0  0  0  0  0  0  0  0  0  0
   -6.0162   28.9019    8.9559 C   0  0  0  0  0  0  0  0  0  0  0  0
   -5.0155   29.9712    9.2801 C   0  0  0  0  0  0  0  0  0  0  0  0
   -3.9151   29.1037    8.7448 C   0  0  0  0  0  0  0  0  0  0  0  0
   -2.9143   30.1730    9.0689 C   0  0  0  0  0  0  0  0  0  0  0  0
   -4.0147   31.0405    9.6042 N   0  0  0  0  0  0  0  0  0  0  0  0
   -5.4575   27.6516    8.3436 N   0  0  0  0  0  0  0  0  0  0  0  0
    2.0876   23.0108    6.9393 H   0  0  0  0  0  0  0  0  0  0  0  0
    3.8119   24.2408    7.0561 H   0  0  0  0  0  0  0  0  0  0  0  0
    1.2956   24.3729    6.5276 H   0  0  0  0  0  0  0  0  0  0  0  0
    4.0735   25.6045    6.1784 H   0  0  0  0  0  0  0  0  0  0  0  0
    3.1520   28.5658    6.1203 H   0  0  0  0  0  0  0  0  0  0  0  0
    2.2023   27.7186    6.2722 H   0  0  0  0  0  0  0  0  0  0  0  0
    4.3986   27.1010    6.2839 H   0  0  0  0  0  0  0  0  0  0  0  0
    0.7346   25.3264    6.5095 H   0  0  0  0  0  0  0  0  0  0  0  0
    1.0417   28.9500    8.0242 H   0  0  0  0  0  0  0  0  0  0  0  0
    2.3201   27.9439    7.4196 H   0  0  0  0  0  0  0  0  0  0  0  0
   -0.7980   28.1204    7.9162 H   0  0  0  0  0  0  0  0  0  0  0  0
   -1.9419   27.0743    7.6226 H   0  0  0  0  0  0  0  0  0  0  0  0
   -0.3250   24.8460    6.4450 H   0  0  0  0  0  0  0  0  0  0  0  0
   -1.3164   23.8990    6.1734 H   0  0  0  0  0  0  0  0  0  0  0  0
   -3.1561   23.0694    6.0654 H   0  0  0  0  0  0  0  0  0  0  0  0
   -4.9667   24.0706    6.7396 H   0  0  0  0  0  0  0  0  0  0  0  0
   -2.8362   27.0938    7.7503 H   0  0  0  0  0  0  0  0  0  0  0  0
   -4.5711   27.5654    7.7928 H   0  0  0  0  0  0  0  0  0  0  0  0
   -5.2984   24.6985    7.4482 H   0  0  0  0  0  0  0  0  0  0  0  0
   -6.1014   25.0433    7.3104 H   0  0  0  0  0  0  0  0  0  0  0  0
   -7.2710   24.8108    7.3684 H   0  0  0  0  0  0  0  0  0  0  0  0
   -8.8782   25.2747    7.7845 H   0  0  0  0  0  0  0  0  0  0  0  0
  -10.1392   26.4108    8.4425 H   0  0  0  0  0  0  0  0  0  0  0  0
  -10.1337   28.0838    9.1602 H   0  0  0  0  0  0  0  0  0  0  0  0
   -9.2229   29.6260    9.6996 H   0  0  0  0  0  0  0  0  0  0  0  0
   -7.6809   30.5731    9.8982 H   0  0  0  0  0  0  0  0  0  0  0  0
   -6.1158   30.8387    9.8154 H   0  0  0  0  0  0  0  0  0  0  0  0
   -2.8147   28.2362    8.2095 H   0  0  0  0  0  0  0  0  0  0  0  0
   -4.7742   27.9366    8.3578 H   0  0  0  0  0  0  0  0  0  0  0  0
   -1.9137   31.2423    9.3931 H   0  0  0  0  0  0  0  0  0  0  0  0
   -1.8139   29.3054    8.5336 H   0  0  0  0  0  0  0  0  0  0  0  0
   -4.0853   32.4101   10.2120 H   0  0  0  0  0  0  0  0  0  0  0  0
  1  2  1  0
  2  3  1  0
  2  4  1  0
  4  5  1  0
  5  6  1  0
  6  7  1  0
  7  8  1  0
  8  9  1  0
  9 10  1  0
 10 11  1  0
 11 12  1  0
 12 13  1  0
 13 14  1  0
 14 15  1  0
 15 16  1  0
 16 17  1  0
 17 18  1  0
 18 19  1  0
 19 20  1  0
 20 21  1  0
 17 22  2  0
  6  4  1  0
 10  8  1  0
 22 12  1  0
 21 18  1  0
  1 23  1  0
  1 24  1  0
  1 25  1  0
  2 26  1  0
  3 27  1  0
  3 28  1  0
  3 29  1  0
  4 30  1  0
  5 31  1  0
  5 32  1  0
  6 33  1  0
  7 34  1  0
  7 35  1  0
  8 36  1  0
  9 37  1  0
  9 38  1  0
 10 39  1  0
 11 40  1  0
 11 41  1  0
 12 42  1  0
 13 43  1  0
 13 44  1  0
 14 45  1  0
 15 46  1  0
 15 47  1  0
 16 48  1  0
 18 49  1  0
 19 50  1  0
 19 51  1  0
 20 52  1  0
 20 53  1  0
 21 54  1  0
M  END
