
     RDKit          2D

 24 26  0  0  0  0  0  0  0  0999 V2000
   18.0457  -23.4584  -11.8908 C   0  0  0  0  0  0  0  0  0  0  0  0
   18.0054  -21.9613  -11.8058 C   0  0  0  0  0  0  0  0  0  0  0  0
   17.9141  -20.5849  -11.2166 C   0  0  0  0  0  0  0  0  0  0  0  0
   17.9837  -19.3810  -12.1088 C   0  0  0  0  0  0  0  0  0  0  0  0
   18.1447  -19.5537  -13.5901 C   0  0  0  0  0  0  0  0  0  0  0  0
   18.2361  -20.9301  -14.1793 C   0  0  0  0  0  0  0  0  0  0  0  0
   18.1664  -22.1339  -13.2871 C   0  0  0  0  0  0  0  0  0  0  0  0
   18.3265  -22.6125  -14.6997 C   0  0  0  0  0  0  0  0  0  0  0  0
   18.3962  -21.4087  -15.5918 N   0  0  0  0  0  0  0  0  0  0  0  0
   18.3057  -19.7263  -15.0714 N   0  0  0  0  0  0  0  0  0  0  0  0
   18.0860  -24.9554  -11.9757 H   0  0  0  0  0  0  0  0  0  0  0  0
   17.8857  -23.5471  -10.4020 H   0  0  0  0  0  0  0  0  0  0  0  0
   18.1532  -23.5203  -12.8670 H   0  0  0  0  0  0  0  0  0  0  0  0
   17.8584  -22.3087  -10.3540 H   0  0  0  0  0  0  0  0  0  0  0  0
   17.7988  -21.4102   -9.9695 H   0  0  0  0  0  0  0  0  0  0  0  0
   17.7827  -19.4951  -10.1943 H   0  0  0  0  0  0  0  0  0  0  0  0
   17.8282  -18.7094  -10.7766 H   0  0  0  0  0  0  0  0  0  0  0  0
   17.9993  -17.9440  -12.5383 H   0  0  0  0  0  0  0  0  0  0  0  0
   18.1322  -18.0640  -13.7650 H   0  0  0  0  0  0  0  0  0  0  0  0
   18.0779  -20.3537  -12.8035 H   0  0  0  0  0  0  0  0  0  0  0  0
   18.2264  -23.0370  -13.6736 H   0  0  0  0  0  0  0  0  0  0  0  0
   18.3081  -24.0419  -14.2454 H   0  0  0  0  0  0  0  0  0  0  0  0
   18.4787  -23.3761  -15.9818 H   0  0  0  0  0  0  0  0  0  0  0  0
   18.5550  -21.4246  -17.0833 H   0  0  0  0  0  0  0  0  0  0  0  0
  1  2  1  0
  2  3  1  0
  3  4  1  0
  4  5  1  0
  5  6  1  0
  6  7  1  0
  7  8  1  0
  8  9  1  0
  9 10  1  0
  7  2  1  0
 10  5  1  0
 10  6  1  0
  1 11  1  0
  1 12  1  0
  1 13  1  0
  2 14  1  0
  3 15  1  0
  3 16  1  0
  4 17  1  0
  4 18  1  0
  5 19  1  0
  6 20  1  0
  7 21  1  0
  8 22  1  0
  8 23  1  0
  9 24  1  0
M  END
