
     RDKit          2D

 49 52  0  0  0  0  0  0  0  0999 V2000
    3.3276   17.9569    6.8838 C   0  0  0  0  0  0  0  0  0  0  0  0
    2.7171   19.0870    6.1092 C   0  0  0  0  0  0  0  0  0  0  0  0
    2.1065   20.2171    5.3345 C   0  0  0  0  0  0  0  0  0  0  0  0
    1.0044   20.6107    6.2729 C   0  0  0  0  0  0  0  0  0  0  0  0
   -0.1628   21.4906    6.6095 C   0  0  0  0  0  0  0  0  0  0  0  0
    0.0196   22.2275    5.3158 C   0  0  0  0  0  0  0  0  0  0  0  0
    0.2020   22.9644    4.0221 C   0  0  0  0  0  0  0  0  0  0  0  0
   -0.9686   23.8408    4.3562 C   0  0  0  0  0  0  0  0  0  0  0  0
   -0.7862   24.5777    3.0625 C   0  0  0  0  0  0  0  0  0  0  0  0
   -0.9744   25.5494    1.9353 C   0  0  0  0  0  0  0  0  0  0  0  0
   -2.1180   26.0503    2.7669 C   0  0  0  0  0  0  0  0  0  0  0  0
   -2.9578   27.1925    2.2767 C   0  0  0  0  0  0  0  0  0  0  0  0
   -4.1013   27.6933    3.1082 C   0  0  0  0  0  0  0  0  0  0  0  0
   -5.2450   28.1943    3.9397 C   0  0  0  0  0  0  0  0  0  0  0  0
   -4.4086   28.7254    2.0639 C   0  0  0  0  0  0  0  0  0  0  0  0
    0.0799   25.2735    0.9046 C   0  0  0  0  0  0  0  0  0  0  0  0
    0.9197   24.1314    1.3947 C   0  0  0  0  0  0  0  0  0  0  0  0
    0.3845   23.7013    2.7283 C   0  0  0  0  0  0  0  0  0  0  0  0
    1.1869   21.3476    4.9792 C   0  0  0  0  0  0  0  0  0  0  0  0
    3.9381   16.8269    7.6585 H   0  0  0  0  0  0  0  0  0  0  0  0
    4.3327   17.7499    5.7897 H   0  0  0  0  0  0  0  0  0  0  0  0
    2.3226   18.1639    7.9779 H   0  0  0  0  0  0  0  0  0  0  0  0
    1.4639   18.6436    6.8042 H   0  0  0  0  0  0  0  0  0  0  0  0
    4.0546   19.3949    5.5041 H   0  0  0  0  0  0  0  0  0  0  0  0
    2.9965   20.2161    4.1271 H   0  0  0  0  0  0  0  0  0  0  0  0
    0.9862   19.7585    7.5071 H   0  0  0  0  0  0  0  0  0  0  0  0
   -1.3301   22.3705    6.9461 H   0  0  0  0  0  0  0  0  0  0  0  0
   -0.3453   20.7537    7.9032 H   0  0  0  0  0  0  0  0  0  0  0  0
   -0.6776   22.6902    5.6061 H   0  0  0  0  0  0  0  0  0  0  0  0
    1.1612   22.3325    3.6257 H   0  0  0  0  0  0  0  0  0  0  0  0
   -2.1392   24.7172    4.6903 H   0  0  0  0  0  0  0  0  0  0  0  0
   -1.1597   23.4720    5.1385 H   0  0  0  0  0  0  0  0  0  0  0  0
   -1.7383   25.0956    3.6115 H   0  0  0  0  0  0  0  0  0  0  0  0
   -1.4017   26.6258    0.9821 H   0  0  0  0  0  0  0  0  0  0  0  0
   -2.4753   25.6284    3.8488 H   0  0  0  0  0  0  0  0  0  0  0  0
   -2.5166   27.7133    0.9410 H   0  0  0  0  0  0  0  0  0  0  0  0
   -3.7941   26.6613    4.1525 H   0  0  0  0  0  0  0  0  0  0  0  0
   -6.3885   28.6952    4.7710 H   0  0  0  0  0  0  0  0  0  0  0  0
   -5.5574   29.2207    2.8914 H   0  0  0  0  0  0  0  0  0  0  0  0
   -5.1441   27.6288    4.6138 H   0  0  0  0  0  0  0  0  0  0  0  0
   -4.7157   29.7574    1.0197 H   0  0  0  0  0  0  0  0  0  0  0  0
   -5.1016   29.0925    2.4755 H   0  0  0  0  0  0  0  0  0  0  0  0
   -3.3097   28.3553    1.1123 H   0  0  0  0  0  0  0  0  0  0  0  0
   -0.5679   26.4076    0.1668 H   0  0  0  0  0  0  0  0  0  0  0  0
    0.9988   25.2347   -0.2804 H   0  0  0  0  0  0  0  0  0  0  0  0
    1.6630   24.3313    0.1072 H   0  0  0  0  0  0  0  0  0  0  0  0
    1.9148   23.0310    1.6157 H   0  0  0  0  0  0  0  0  0  0  0  0
    1.5120   22.7205    2.6007 H   0  0  0  0  0  0  0  0  0  0  0  0
    1.6780   21.6340    3.9055 H   0  0  0  0  0  0  0  0  0  0  0  0
  1  2  1  0
  2  3  1  0
  3  4  1  0
  4  5  1  0
  5  6  1  0
  6  7  1  0
  7  8  1  0
  8  9  1  0
  9 10  1  0
 10 11  1  0
 11 12  2  3
 12 13  1  0
 13 14  1  0
 13 15  1  0
 10 16  1  0
 16 17  1  0
 17 18  1  0
  6 19  1  0
 19  3  1  0
 19  4  1  0
 18  7  1  0
 18  9  1  0
  1 20  1  0
  1 21  1  0
  1 22  1  0
  2 23  1  0
  2 24  1  0
  3 25  1  6
  4 26  1  1
  5 27  1  0
  5 28  1  0
  6 29  1  6
  7 30  1  6
  8 31  1  0
  8 32  1  0
  9 33  1  1
 10 34  1  1
 11 35  1  0
 12 36  1  0
 13 37  1  0
 14 38  1  0
 14 39  1  0
 14 40  1  0
 15 41  1  0
 15 42  1  0
 15 43  1  0
 16 44  1  0
 16 45  1  0
 17 46  1  0
 17 47  1  0
 18 48  1  6
 19 49  1  1
M  END
