
     RDKit          2D

 99105  0  0  0  0  0  0  0  0999 V2000
  -13.8829   29.6964    5.6498 C   0  0  0  0  0  0  0  0  0  0  0  0
  -12.5426   29.0415    5.8075 C   0  0  0  0  0  0  0  0  0  0  0  0
  -12.2788   27.5650    5.8214 C   0  0  0  0  0  0  0  0  0  0  0  0
  -10.8040   27.3592    6.0015 C   0  0  0  0  0  0  0  0  0  0  0  0
  -10.1563   28.7086    6.0989 C   0  0  0  0  0  0  0  0  0  0  0  0
   -9.2439   29.8924    6.2270 C   0  0  0  0  0  0  0  0  0  0  0  0
   -8.0678   28.9714    6.3622 O   0  0  0  0  0  0  0  0  0  0  0  0
   -8.2697   27.4857    6.3189 O   0  0  0  0  0  0  0  0  0  0  0  0
   -7.0935   26.5647    6.4540 C   0  0  0  0  0  0  0  0  0  0  0  0
   -8.1962   25.5588    6.3044 C   0  0  0  0  0  0  0  0  0  0  0  0
   -7.8815   24.0924    6.3257 O   0  0  0  0  0  0  0  0  0  0  0  0
   -6.4643   23.6317    6.4965 C   0  0  0  0  0  0  0  0  0  0  0  0
   -5.3616   24.6376    6.6461 C   0  0  0  0  0  0  0  0  0  0  0  0
   -3.9835   25.2023    6.8246 C   0  0  0  0  0  0  0  0  0  0  0  0
   -2.6053   25.7669    7.0031 C   0  0  0  0  0  0  0  0  0  0  0  0
   -2.1944   24.3247    7.0367 C   0  0  0  0  0  0  0  0  0  0  0  0
   -3.3983   23.4444    6.8760 C   0  0  0  0  0  0  0  0  0  0  0  0
   -0.9601   23.4847    7.1801 C   0  0  0  0  0  0  0  0  0  0  0  0
   -2.1110   22.5352    7.0252 C   0  0  0  0  0  0  0  0  0  0  0  0
    0.5202   23.6398    7.3663 C   0  0  0  0  0  0  0  0  0  0  0  0
    1.1733   22.2910    7.4311 C   0  0  0  0  0  0  0  0  0  0  0  0
    1.5538   24.7176    7.5082 C   0  0  0  0  0  0  0  0  0  0  0  0
    1.6569   26.2137    7.5393 C   0  0  0  0  0  0  0  0  0  0  0  0
    0.2448   27.1649    7.3751 C   0  0  0  0  0  0  0  0  0  0  0  0
   -1.9567   28.4273    7.1165 C   0  0  0  0  0  0  0  0  0  0  0  0
   -0.5562   27.9171    7.2846 C   0  0  0  0  0  0  0  0  0  0  0  0
   -0.5774   26.5979    7.2658 C   0  0  0  0  0  0  0  0  0  0  0  0
    0.3539   25.6689    7.3704 C   0  0  0  0  0  0  0  0  0  0  0  0
    1.3147   24.5218    7.4760 C   0  0  0  0  0  0  0  0  0  0  0  0
    2.2755   23.3748    7.5816 C   0  0  0  0  0  0  0  0  0  0  0  0
    3.2363   22.2277    7.6872 C   0  0  0  0  0  0  0  0  0  0  0  0
    2.0083   23.0191    6.1491 C   0  0  0  0  0  0  0  0  0  0  0  0
    1.7410   22.6634    4.7166 C   0  0  0  0  0  0  0  0  0  0  0  0
    2.5778   23.2640    3.6261 C   0  0  0  0  0  0  0  0  0  0  0  0
    0.6370   21.7073    4.3745 O   0  0  0  0  0  0  0  0  0  0  0  0
   -1.1306   25.5612    7.1843 C   0  0  0  0  0  0  0  0  0  0  0  0
   -1.6931   26.9507    7.1312 C   0  0  0  0  0  0  0  0  0  0  0  0
   -5.6763   26.1040    6.6249 C   0  0  0  0  0  0  0  0  0  0  0  0
   -8.3317   31.0762    6.3551 C   0  0  0  0  0  0  0  0  0  0  0  0
   -7.4194   32.2600    6.4832 C   0  0  0  0  0  0  0  0  0  0  0  0
   -9.5098   31.9970    6.2362 C   0  0  0  0  0  0  0  0  0  0  0  0
  -10.6880   32.9178    6.1172 O   0  0  0  0  0  0  0  0  0  0  0  0
  -11.2308   29.7483    5.9790 C   0  0  0  0  0  0  0  0  0  0  0  0
  -13.9921   31.1923    5.6553 H   0  0  0  0  0  0  0  0  0  0  0  0
  -15.1141   28.8551    5.4865 H   0  0  0  0  0  0  0  0  0  0  0  0
  -12.3254   26.0659    5.7966 H   0  0  0  0  0  0  0  0  0  0  0  0
  -13.7634   27.4573    5.6361 H   0  0  0  0  0  0  0  0  0  0  0  0
   -9.3523   27.0249    6.1771 H   0  0  0  0  0  0  0  0  0  0  0  0
  -11.1590   25.9032    5.9390 H   0  0  0  0  0  0  0  0  0  0  0  0
   -9.1183   27.6318    6.2138 H   0  0  0  0  0  0  0  0  0  0  0  0
  -10.3002   30.9509    6.1084 H   0  0  0  0  0  0  0  0  0  0  0  0
   -6.3994   27.8904    6.5567 H   0  0  0  0  0  0  0  0  0  0  0  0
   -9.5744   24.9941    6.1259 H   0  0  0  0  0  0  0  0  0  0  0  0
   -8.8300   26.9169    6.2421 H   0  0  0  0  0  0  0  0  0  0  0  0
   -5.2881   22.7106    6.6317 H   0  0  0  0  0  0  0  0  0  0  0  0
   -7.1584   22.3060    6.3939 H   0  0  0  0  0  0  0  0  0  0  0  0
   -4.7279   23.2795    6.7084 H   0  0  0  0  0  0  0  0  0  0  0  0
   -3.7498   23.7368    6.6061 H   0  0  0  0  0  0  0  0  0  0  0  0
   -4.3957   26.6304    7.0258 H   0  0  0  0  0  0  0  0  0  0  0  0
   -4.8219   23.8844    6.7041 H   0  0  0  0  0  0  0  0  0  0  0  0
   -3.4236   21.9448    6.8545 H   0  0  0  0  0  0  0  0  0  0  0  0
   -0.3858   22.1000    7.2347 H   0  0  0  0  0  0  0  0  0  0  0  0
   -3.1382   21.4514    6.8840 H   0  0  0  0  0  0  0  0  0  0  0  0
   -1.3143   21.2670    7.1089 H   0  0  0  0  0  0  0  0  0  0  0  0
   -1.0338   21.4985    7.1466 H   0  0  0  0  0  0  0  0  0  0  0  0
    0.3415   21.0484    7.3124 H   0  0  0  0  0  0  0  0  0  0  0  0
    2.5891   21.8259    7.6017 H   0  0  0  0  0  0  0  0  0  0  0  0
    2.5757   23.6256    7.6221 H   0  0  0  0  0  0  0  0  0  0  0  0
    3.0349   24.8640    7.6944 H   0  0  0  0  0  0  0  0  0  0  0  0
    3.1455   26.2210    7.7248 H   0  0  0  0  0  0  0  0  0  0  0  0
    2.5591   27.4053    7.6663 H   0  0  0  0  0  0  0  0  0  0  0  0
    1.2561   28.2639    7.5145 H   0  0  0  0  0  0  0  0  0  0  0  0
   -2.9175   29.5743    7.0109 H   0  0  0  0  0  0  0  0  0  0  0  0
    0.0916   29.2666    7.3818 H   0  0  0  0  0  0  0  0  0  0  0  0
    1.5152   28.3844    7.5483 H   0  0  0  0  0  0  0  0  0  0  0  0
    2.1897   26.9713    7.6150 H   0  0  0  0  0  0  0  0  0  0  0  0
    0.1865   23.9755    6.6522 H   0  0  0  0  0  0  0  0  0  0  0  0
    2.1139   25.5044    8.2798 H   0  0  0  0  0  0  0  0  0  0  0  0
    2.7672   23.4423    8.9971 H   0  0  0  0  0  0  0  0  0  0  0  0
    4.1971   21.0806    7.7928 H   0  0  0  0  0  0  0  0  0  0  0  0
    3.5031   22.5831    9.1198 H   0  0  0  0  0  0  0  0  0  0  0  0
    3.0885   21.7352    6.2781 H   0  0  0  0  0  0  0  0  0  0  0  0
    1.0142   23.9614    5.5375 H   0  0  0  0  0  0  0  0  0  0  0  0
    2.9307   21.8383    6.0787 H   0  0  0  0  0  0  0  0  0  0  0  0
    3.4145   23.8646    2.5356 H   0  0  0  0  0  0  0  0  0  0  0  0
    1.6168   24.4108    3.5203 H   0  0  0  0  0  0  0  0  0  0  0  0
    3.5388   22.1171    3.7319 H   0  0  0  0  0  0  0  0  0  0  0  0
   -0.8159   24.0948    7.2055 H   0  0  0  0  0  0  0  0  0  0  0  0
   -5.4743   27.5897    6.6682 H   0  0  0  0  0  0  0  0  0  0  0  0
   -4.2069   26.3417    6.8108 H   0  0  0  0  0  0  0  0  0  0  0  0
   -7.1536   30.1555    6.4740 H   0  0  0  0  0  0  0  0  0  0  0  0
   -6.5072   33.4438    6.6112 H   0  0  0  0  0  0  0  0  0  0  0  0
   -6.3629   31.2016    6.5991 H   0  0  0  0  0  0  0  0  0  0  0  0
   -6.1405   31.4902    6.6304 H   0  0  0  0  0  0  0  0  0  0  0  0
   -8.4886   32.9311    5.6577 H   0  0  0  0  0  0  0  0  0  0  0  0
   -8.7759   33.1556    5.6287 H   0  0  0  0  0  0  0  0  0  0  0  0
  -10.5120   34.2899    5.5373 H   0  0  0  0  0  0  0  0  0  0  0  0
  -12.0676   30.9901    5.8911 H   0  0  0  0  0  0  0  0  0  0  0  0
  -10.2195   30.8474    6.1183 H   0  0  0  0  0  0  0  0  0  0  0  0
  1  2  2  3
  2  3  1  0
  3  4  1  0
  4  5  1  0
  5  6  1  0
  6  7  1  0
  7  8  1  0
  8  9  1  0
  9 10  1  0
 10 11  1  0
 11 12  1  0
 12 13  1  0
 13 14  1  0
 14 15  1  0
 15 16  1  0
 16 17  2  3
 16 18  1  0
 18 19  1  0
 18 20  1  0
 20 21  2  3
 20 22  1  0
 22 23  1  0
 23 24  1  0
 24 25  1  0
 25 26  1  0
 26 27  1  0
 27 28  1  0
 28 29  1  0
 29 30  1  0
 30 31  1  0
 30 32  1  0
 32 33  1  0
 33 34  1  0
 33 35  2  0
 28 36  1  0
 36 37  1  0
 13 38  1  0
  6 39  1  0
 39 40  1  0
 39 41  1  0
 41 42  1  0
  5 43  1  0
 43  2  1  0
 38  9  1  0
 36 15  1  0
 37 15  1  0
 28 24  1  0
 37 25  1  0
 37 26  1  0
  1 44  1  0
  1 45  1  0
  3 46  1  0
  3 47  1  0
  4 48  1  0
  4 49  1  0
  5 50  1  0
  6 51  1  0
  9 52  1  0
 10 53  1  0
 10 54  1  0
 12 55  1  0
 12 56  1  0
 13 57  1  0
 14 58  1  0
 14 59  1  0
 17 60  1  0
 17 61  1  0
 18 62  1  0
 19 63  1  0
 19 64  1  0
 19 65  1  0
 21 66  1  0
 21 67  1  0
 22 68  1  0
 22 69  1  0
 23 70  1  0
 23 71  1  0
 24 72  1  0
 25 73  1  0
 26 74  1  0
 27 75  1  0
 27 76  1  0
 29 77  1  0
 29 78  1  0
 30 79  1  0
 31 80  1  0
 31 81  1  0
 31 82  1  0
 32 83  1  0
 32 84  1  0
 34 85  1  0
 34 86  1  0
 34 87  1  0
 36 88  1  0
 38 89  1  0
 38 90  1  0
 39 91  1  0
 40 92  1  0
 40 93  1  0
 40 94  1  0
 41 95  1  0
 41 96  1  0
 42 97  1  0
 43 98  1  0
 43 99  1  0
M  END
