
     RDKit          2D

 31 30  0  0  0  0  0  0  0  0999 V2000
    6.7508   25.3352   10.7460 C   0  0  0  0  0  0  0  0  0  0  0  0
    5.4749   25.6343   10.0162 C   0  0  0  0  0  0  0  0  0  0  0  0
    4.1990   25.9335    9.2865 C   0  0  0  0  0  0  0  0  0  0  0  0
    2.9230   26.2326    8.5567 C   0  0  0  0  0  0  0  0  0  0  0  0
    1.6471   26.5318    7.8270 C   0  0  0  0  0  0  0  0  0  0  0  0
    0.3712   26.8309    7.0972 C   0  0  0  0  0  0  0  0  0  0  0  0
    2.4324   26.8840    6.5984 N   0  0  0  0  0  0  0  0  0  0  0  0
    1.7463   26.9632    5.2669 C   0  0  0  0  0  0  0  0  0  0  0  0
    1.0601   27.0425    3.9353 P   0  0  0  0  0  0  0  0  0  0  0  0
    1.8453   27.3947    2.7068 C   0  0  0  0  0  0  0  0  0  0  0  0
    2.6306   27.7469    1.4782 O   0  0  0  0  0  0  0  0  0  0  0  0
    8.0267   25.0361   11.4757 H   0  0  0  0  0  0  0  0  0  0  0  0
    7.4396   26.4339    9.9921 H   0  0  0  0  0  0  0  0  0  0  0  0
    6.0620   24.2365   11.4999 H   0  0  0  0  0  0  0  0  0  0  0  0
    4.8389   24.4233   10.6317 H   0  0  0  0  0  0  0  0  0  0  0  0
    6.1109   26.8454    9.4007 H   0  0  0  0  0  0  0  0  0  0  0  0
    4.8150   27.1781    8.7195 H   0  0  0  0  0  0  0  0  0  0  0  0
    3.5829   24.6889    9.8534 H   0  0  0  0  0  0  0  0  0  0  0  0
    2.2522   25.0912    9.2618 H   0  0  0  0  0  0  0  0  0  0  0  0
    3.7444   27.3291    7.9459 H   0  0  0  0  0  0  0  0  0  0  0  0
    0.8619   26.1796    9.0555 H   0  0  0  0  0  0  0  0  0  0  0  0
   -0.9047   27.1300    6.3675 H   0  0  0  0  0  0  0  0  0  0  0  0
   -0.3666   25.8876    8.0005 H   0  0  0  0  0  0  0  0  0  0  0  0
    0.4942   27.3559    6.5101 H   0  0  0  0  0  0  0  0  0  0  0  0
    3.8997   27.1853    6.5204 H   0  0  0  0  0  0  0  0  0  0  0  0
    3.0487   27.3261    4.6174 H   0  0  0  0  0  0  0  0  0  0  0  0
    1.0148   26.7770    5.5232 H   0  0  0  0  0  0  0  0  0  0  0  0
   -0.4112   26.7695    3.8324 H   0  0  0  0  0  0  0  0  0  0  0  0
    1.8225   25.9569    2.2800 H   0  0  0  0  0  0  0  0  0  0  0  0
    1.8682   28.8325    3.1336 H   0  0  0  0  0  0  0  0  0  0  0  0
    2.7754   29.1821    1.0666 H   0  0  0  0  0  0  0  0  0  0  0  0
  1  2  1  0
  2  3  1  0
  3  4  1  0
  4  5  1  0
  5  6  1  0
  5  7  1  0
  7  8  1  0
  8  9  1  0
  9 10  1  0
 10 11  1  0
  1 12  1  0
  1 13  1  0
  1 14  1  0
  2 15  1  0
  2 16  1  0
  3 17  1  0
  3 18  1  0
  4 19  1  0
  4 20  1  0
  5 21  1  0
  6 22  1  0
  6 23  1  0
  6 24  1  0
  7 25  1  0
  8 26  1  0
  8 27  1  0
  9 28  1  0
 10 29  1  0
 10 30  1  0
 11 31  1  0
M  END
