
     RDKit          2D

102114  0  0  0  0  0  0  0  0999 V2000
   20.4487  -23.1232  -18.7590 C   0  0  0  0  0  0  0  0  0  0  0  0
   20.9576  -21.8073  -18.2499 C   0  0  0  0  0  0  0  0  0  0  0  0
   20.6681  -21.3860  -16.8397 C   0  0  0  0  0  0  0  0  0  0  0  0
   20.3786  -20.9648  -15.4294 C   0  0  0  0  0  0  0  0  0  0  0  0
   21.8384  -21.0655  -15.0997 F   0  0  0  0  0  0  0  0  0  0  0  0
   20.0891  -20.5435  -14.0192 C   0  0  0  0  0  0  0  0  0  0  0  0
   19.7996  -20.1223  -12.6090 C   0  0  0  0  0  0  0  0  0  0  0  0
   19.5101  -19.7011  -11.1988 C   0  0  0  0  0  0  0  0  0  0  0  0
   18.1144  -19.3223  -10.8007 C   0  0  0  0  0  0  0  0  0  0  0  0
   17.1414  -18.8604   -9.7567 C   0  0  0  0  0  0  0  0  0  0  0  0
   17.1070  -18.4793   -8.3064 C   0  0  0  0  0  0  0  0  0  0  0  0
   15.7059  -18.3354   -8.8222 C   0  0  0  0  0  0  0  0  0  0  0  0
   14.7855  -18.4574  -10.0003 C   0  0  0  0  0  0  0  0  0  0  0  0
   13.3410  -18.2633  -10.3548 C   0  0  0  0  0  0  0  0  0  0  0  0
   13.3753  -18.6444  -11.8052 C   0  0  0  0  0  0  0  0  0  0  0  0
   14.2354  -18.4995  -10.5848 C   0  0  0  0  0  0  0  0  0  0  0  0
   13.8366  -18.0647   -9.2057 C   0  0  0  0  0  0  0  0  0  0  0  0
   11.9839  -17.1275   -6.9941 C   0  0  0  0  0  0  0  0  0  0  0  0
   13.2422  -17.1658   -6.1786 C   0  0  0  0  0  0  0  0  0  0  0  0
   14.6987  -17.4924   -6.3277 C   0  0  0  0  0  0  0  0  0  0  0  0
   16.1432  -17.6865   -5.9732 C   0  0  0  0  0  0  0  0  0  0  0  0
   15.6717  -17.9542   -7.3718 C   0  0  0  0  0  0  0  0  0  0  0  0
   11.5124  -17.3952   -8.3927 C   0  0  0  0  0  0  0  0  0  0  0  0
   12.0484  -17.8438   -9.7199 C   0  0  0  0  0  0  0  0  0  0  0  0
   12.0826  -18.2249  -11.1703 C   0  0  0  0  0  0  0  0  0  0  0  0
   18.0275  -18.3573   -7.1283 C   0  0  0  0  0  0  0  0  0  0  0  0
   17.7380  -17.9360   -5.7180 C   0  0  0  0  0  0  0  0  0  0  0  0
   19.1825  -18.1302   -5.3635 C   0  0  0  0  0  0  0  0  0  0  0  0
   20.4396  -18.1655   -4.5371 C   0  0  0  0  0  0  0  0  0  0  0  0
   21.7890  -18.5661   -5.0554 C   0  0  0  0  0  0  0  0  0  0  0  0
   23.2533  -18.7962   -4.8252 C   0  0  0  0  0  0  0  0  0  0  0  0
   22.0180  -18.8602   -6.0193 C   0  0  0  0  0  0  0  0  0  0  0  0
   22.0360  -18.9064   -6.1847 C   0  0  0  0  0  0  0  0  0  0  0  0
   20.7647  -18.9709   -7.4086 C   0  0  0  0  0  0  0  0  0  0  0  0
   21.3007  -19.4195   -8.7358 N   0  0  0  0  0  0  0  0  0  0  0  0
   20.6163  -19.6586  -10.1866 C   0  0  0  0  0  0  0  0  0  0  0  0
   19.2205  -19.2798   -9.7885 C   0  0  0  0  0  0  0  0  0  0  0  0
   21.9515  -18.9688   -6.4912 C   0  0  0  0  0  0  0  0  0  0  0  0
   23.4157  -19.1990   -6.2610 N   0  0  0  0  0  0  0  0  0  0  0  0
   19.4720  -18.5514   -6.7737 C   0  0  0  0  0  0  0  0  0  0  0  0
   21.7561  -20.9125  -19.1510 C   0  0  0  0  0  0  0  0  0  0  0  0
   22.5546  -20.0178  -20.0520 C   0  0  0  0  0  0  0  0  0  0  0  0
   21.7123  -18.8481  -19.6370 C   0  0  0  0  0  0  0  0  0  0  0  0
   22.5108  -17.9534  -20.5380 O   0  0  0  0  0  0  0  0  0  0  0  0
   23.3531  -19.1231  -20.9530 C   0  0  0  0  0  0  0  0  0  0  0  0
   20.7382  -23.5444  -20.1693 H   0  0  0  0  0  0  0  0  0  0  0  0
   19.6502  -24.0179  -17.8580 H   0  0  0  0  0  0  0  0  0  0  0  0
   19.2394  -21.1214  -17.2120 H   0  0  0  0  0  0  0  0  0  0  0  0
   22.0969  -21.6506  -16.4673 H   0  0  0  0  0  0  0  0  0  0  0  0
   18.9188  -20.8641  -15.7592 H   0  0  0  0  0  0  0  0  0  0  0  0
   18.6338  -20.4109  -14.3576 H   0  0  0  0  0  0  0  0  0  0  0  0
   21.5444  -20.6761  -13.6808 H   0  0  0  0  0  0  0  0  0  0  0  0
   20.5230  -21.3332  -12.0988 H   0  0  0  0  0  0  0  0  0  0  0  0
   19.0762  -18.9114  -13.1192 H   0  0  0  0  0  0  0  0  0  0  0  0
   16.7829  -19.2359  -11.4860 H   0  0  0  0  0  0  0  0  0  0  0  0
   16.3606  -19.0336  -11.0257 H   0  0  0  0  0  0  0  0  0  0  0  0
   15.7205  -18.4979   -9.4406 H   0  0  0  0  0  0  0  0  0  0  0  0
   16.5872  -18.0322   -6.9722 H   0  0  0  0  0  0  0  0  0  0  0  0
   16.3900  -18.7942  -10.0758 H   0  0  0  0  0  0  0  0  0  0  0  0
   15.8628  -18.9128  -10.9393 H   0  0  0  0  0  0  0  0  0  0  0  0
   14.8284  -18.8401  -11.4500 H   0  0  0  0  0  0  0  0  0  0  0  0
   14.1414  -19.1066  -13.0090 H   0  0  0  0  0  0  0  0  0  0  0  0
   15.0681  -18.9631  -11.7431 H   0  0  0  0  0  0  0  0  0  0  0  0
   15.6613  -18.6696  -10.1515 H   0  0  0  0  0  0  0  0  0  0  0  0
   15.1012  -18.1069   -8.4003 H   0  0  0  0  0  0  0  0  0  0  0  0
   14.0925  -17.7430   -7.7633 H   0  0  0  0  0  0  0  0  0  0  0  0
   10.8336  -16.6800   -6.1417 H   0  0  0  0  0  0  0  0  0  0  0  0
   12.1474  -16.7120   -5.2591 H   0  0  0  0  0  0  0  0  0  0  0  0
   13.7056  -16.8959   -4.7777 H   0  0  0  0  0  0  0  0  0  0  0  0
   14.8442  -17.1463   -4.8755 H   0  0  0  0  0  0  0  0  0  0  0  0
   16.1089  -17.3054   -4.5228 H   0  0  0  0  0  0  0  0  0  0  0  0
   17.6158  -17.9704   -5.9449 H   0  0  0  0  0  0  0  0  0  0  0  0
   17.1281  -18.2807   -7.5210 H   0  0  0  0  0  0  0  0  0  0  0  0
   10.2496  -17.3542   -9.2011 H   0  0  0  0  0  0  0  0  0  0  0  0
   10.3105  -16.9556   -7.6102 H   0  0  0  0  0  0  0  0  0  0  0  0
   10.6498  -17.7024  -10.2437 H   0  0  0  0  0  0  0  0  0  0  0  0
   10.8242  -18.1865  -11.9857 H   0  0  0  0  0  0  0  0  0  0  0  0
   18.8371  -18.8205   -8.3029 H   0  0  0  0  0  0  0  0  0  0  0  0
   17.4485  -17.5148   -4.3078 H   0  0  0  0  0  0  0  0  0  0  0  0
   16.2664  -17.6457   -5.7208 H   0  0  0  0  0  0  0  0  0  0  0  0
   19.5054  -17.8243   -3.9309 H   0  0  0  0  0  0  0  0  0  0  0  0
   21.1008  -17.9530   -3.2074 H   0  0  0  0  0  0  0  0  0  0  0  0
   19.5059  -17.7024   -3.4583 H   0  0  0  0  0  0  0  0  0  0  0  0
   22.1869  -18.2789   -3.6380 H   0  0  0  0  0  0  0  0  0  0  0  0
   24.1737  -18.6742   -3.6471 H   0  0  0  0  0  0  0  0  0  0  0  0
   23.9225  -19.7175   -7.8819 H   0  0  0  0  0  0  0  0  0  0  0  0
   24.5618  -19.3463   -5.9536 H   0  0  0  0  0  0  0  0  0  0  0  0
   21.9108  -19.6477   -9.1528 H   0  0  0  0  0  0  0  0  0  0  0  0
   23.4909  -19.7478   -8.3299 H   0  0  0  0  0  0  0  0  0  0  0  0
   22.7667  -19.7283   -8.8091 H   0  0  0  0  0  0  0  0  0  0  0  0
   22.0608  -19.8527   -9.8320 H   0  0  0  0  0  0  0  0  0  0  0  0
   19.1093  -18.8854   -8.3456 H   0  0  0  0  0  0  0  0  0  0  0  0
   20.8013  -18.5214   -5.6389 H   0  0  0  0  0  0  0  0  0  0  0  0
   24.6697  -19.6282   -6.9634 H   0  0  0  0  0  0  0  0  0  0  0  0
   18.0109  -18.3284   -7.0291 H   0  0  0  0  0  0  0  0  0  0  0  0
   22.9105  -21.6996  -18.6051 H   0  0  0  0  0  0  0  0  0  0  0  0
   20.4951  -20.2294  -19.5902 H   0  0  0  0  0  0  0  0  0  0  0  0
   23.3970  -21.1875  -20.4669 H   0  0  0  0  0  0  0  0  0  0  0  0
   20.8699  -17.6783  -19.2221 H   0  0  0  0  0  0  0  0  0  0  0  0
   20.8170  -19.5935  -18.6921 H   0  0  0  0  0  0  0  0  0  0  0  0
   24.1955  -20.2928  -21.3680 H   0  0  0  0  0  0  0  0  0  0  0  0
   24.1517  -18.2284  -21.8541 H   0  0  0  0  0  0  0  0  0  0  0  0
  1  2  2  3
  2  3  1  0
  3  4  1  0
  4  5  1  0
  4  6  1  0
  6  7  1  0
  7  8  1  0
  8  9  1  0
  9 10  1  0
 10 11  1  0
 11 12  1  0
 12 13  1  0
 13 14  1  0
 14 15  1  0
 15 16  1  0
 16 17  1  0
 17 18  1  0
 18 19  1  0
 19 20  1  0
 20 21  1  0
 21 22  1  0
 18 23  1  0
 23 24  1  0
 24 25  1  0
 11 26  1  0
 26 27  1  0
 27 28  1  0
 28 29  1  0
 29 30  1  0
 30 31  1  0
 31 32  1  0
 32 33  1  0
 33 34  1  0
 34 35  1  0
 35 36  1  0
 36 37  1  0
 34 38  1  0
 38 39  1  0
 34 40  1  0
  2 41  1  0
 41 42  1  0
 42 43  1  0
 43 44  1  0
 44 45  1  0
 36  8  1  0
 45 42  1  0
 37  8  1  0
 37  9  1  0
 22 12  1  0
 40 26  1  0
 24 14  1  0
 40 28  1  0
 25 14  1  0
 38 30  1  0
 25 15  1  0
 39 31  1  0
 22 20  1  0
  1 46  1  0
  1 47  1  0
  3 48  1  0
  3 49  1  0
  4 50  1  0
  6 51  1  0
  6 52  1  0
  7 53  1  0
  7 54  1  0
  9 55  1  0
 10 56  1  0
 10 57  1  0
 11 58  1  0
 12 59  1  0
 13 60  1  0
 13 61  1  0
 15 62  1  0
 16 63  1  0
 16 64  1  0
 17 65  1  0
 17 66  1  0
 18 67  1  0
 19 68  1  0
 19 69  1  0
 20 70  1  0
 21 71  1  0
 21 72  1  0
 22 73  1  0
 23 74  1  0
 23 75  1  0
 24 76  1  0
 25 77  1  0
 26 78  1  0
 27 79  1  0
 27 80  1  0
 28 81  1  0
 29 82  1  0
 29 83  1  0
 30 84  1  0
 31 85  1  0
 32 86  1  0
 32 87  1  0
 33 88  1  0
 33 89  1  0
 35 90  1  0
 36 91  1  0
 37 92  1  0
 38 93  1  0
 39 94  1  0
 40 95  1  0
 41 96  1  0
 41 97  1  0
 42 98  1  0
 43 99  1  0
 43100  1  0
 45101  1  0
 45102  1  0
M  END
