
     RDKit          2D

102107  0  0  0  0  0  0  0  0999 V2000
   25.6631   -8.9114    2.7160 C   0  0  0  0  0  0  0  0  0  0  0  0
   24.3605   -8.5138    2.0875 C   0  0  0  0  0  0  0  0  0  0  0  0
   23.6056   -9.4953    1.2410 C   0  0  0  0  0  0  0  0  0  0  0  0
   22.8506  -10.4769    0.3945 C   0  0  0  0  0  0  0  0  0  0  0  0
   22.1565  -10.9981    1.6179 N   0  0  0  0  0  0  0  0  0  0  0  0
   22.7571  -12.1316    2.3953 C   0  0  0  0  0  0  0  0  0  0  0  0
   22.0957  -11.4584   -0.4520 C   0  0  0  0  0  0  0  0  0  0  0  0
   21.3407  -12.4401   -1.2986 C   0  0  0  0  0  0  0  0  0  0  0  0
   21.3963  -11.9748    0.7704 C   0  0  0  0  0  0  0  0  0  0  0  0
   20.6970  -12.4912    1.9928 C   0  0  0  0  0  0  0  0  0  0  0  0
   19.9977  -13.0075    3.2152 C   0  0  0  0  0  0  0  0  0  0  0  0
   19.2983  -13.5239    4.4377 C   0  0  0  0  0  0  0  0  0  0  0  0
   18.5989  -14.0402    5.6600 C   0  0  0  0  0  0  0  0  0  0  0  0
   19.1944  -15.1730    6.4425 C   0  0  0  0  0  0  0  0  0  0  0  0
   17.3042  -13.4238    6.1000 C   0  0  0  0  0  0  0  0  0  0  0  0
   19.9406  -13.4713    1.1460 C   0  0  0  0  0  0  0  0  0  0  0  0
   19.1841  -14.4516    0.2992 N   0  0  0  0  0  0  0  0  0  0  0  0
   18.2003  -15.3888    0.9345 C   0  0  0  0  0  0  0  0  0  0  0  0
   17.2164  -16.3261    1.5697 C   0  0  0  0  0  0  0  0  0  0  0  0
   16.7343  -16.7407    0.2112 C   0  0  0  0  0  0  0  0  0  0  0  0
   15.7504  -17.6780    0.8464 C   0  0  0  0  0  0  0  0  0  0  0  0
   16.2521  -17.1553   -1.1473 C   0  0  0  0  0  0  0  0  0  0  0  0
   17.7181  -15.8034   -0.4240 C   0  0  0  0  0  0  0  0  0  0  0  0
   17.2359  -16.2180   -1.7826 C   0  0  0  0  0  0  0  0  0  0  0  0
   16.7537  -16.6326   -3.1411 C   0  0  0  0  0  0  0  0  0  0  0  0
   16.2715  -17.0472   -4.4996 C   0  0  0  0  0  0  0  0  0  0  0  0
   15.4301  -17.8479   -5.4488 C   0  0  0  0  0  0  0  0  0  0  0  0
   15.4026  -17.7942   -6.9476 N   0  0  0  0  0  0  0  0  0  0  0  0
   16.2096  -16.9268   -7.8674 C   0  0  0  0  0  0  0  0  0  0  0  0
   15.3683  -17.7274   -8.8165 N   0  0  0  0  0  0  0  0  0  0  0  0
   17.2436  -15.8985   -7.5155 P   0  0  0  0  0  0  0  0  0  0  0  0
   17.2161  -15.8449   -9.0143 N   0  0  0  0  0  0  0  0  0  0  0  0
   16.3747  -16.6456   -9.9635 C   0  0  0  0  0  0  0  0  0  0  0  0
   15.3530  -17.6976   -9.6483 C   0  0  0  0  0  0  0  0  0  0  0  0
   14.9204  -18.2088   -8.3061 N   0  0  0  0  0  0  0  0  0  0  0  0
   15.9421  -17.1568   -8.6213 C   0  0  0  0  0  0  0  0  0  0  0  0
   17.7258  -15.4839   -6.1570 C   0  0  0  0  0  0  0  0  0  0  0  0
   18.3424  -14.9273   -4.9080 C   0  0  0  0  0  0  0  0  0  0  0  0
   19.3466  -13.8882   -5.3103 O   0  0  0  0  0  0  0  0  0  0  0  0
   19.3507  -13.8027   -6.8078 P   0  0  0  0  0  0  0  0  0  0  0  0
   20.2063  -12.8909   -7.6365 Cl  0  0  0  0  0  0  0  0  0  0  0  0
   18.3490  -14.7889   -7.3311 C   0  0  0  0  0  0  0  0  0  0  0  0
   18.7816  -14.2777   -8.6733 F   0  0  0  0  0  0  0  0  0  0  0  0
   17.5092  -15.5878   -8.2833 F   0  0  0  0  0  0  0  0  0  0  0  0
   17.2932  -15.9952   -4.8148 C   0  0  0  0  0  0  0  0  0  0  0  0
   26.4181   -7.9299    3.5625 H   0  0  0  0  0  0  0  0  0  0  0  0
   26.3516  -10.2393    2.6034 H   0  0  0  0  0  0  0  0  0  0  0  0
   23.8128   -7.1345    2.3056 H   0  0  0  0  0  0  0  0  0  0  0  0
   23.2060   -9.6094    2.6823 H   0  0  0  0  0  0  0  0  0  0  0  0
   24.3234   -8.9963    0.0221 H   0  0  0  0  0  0  0  0  0  0  0  0
   23.5447   -9.9557   -0.8288 H   0  0  0  0  0  0  0  0  0  0  0  0
   20.9882  -10.9060    2.5540 H   0  0  0  0  0  0  0  0  0  0  0  0
   23.2131  -13.2503    3.2845 H   0  0  0  0  0  0  0  0  0  0  0  0
   21.6906  -12.2174    3.4467 H   0  0  0  0  0  0  0  0  0  0  0  0
   23.9699  -12.3221    1.5335 H   0  0  0  0  0  0  0  0  0  0  0  0
   22.7950  -10.9421   -1.6745 H   0  0  0  0  0  0  0  0  0  0  0  0
   20.5858  -13.4216   -2.1451 H   0  0  0  0  0  0  0  0  0  0  0  0
   21.9426  -12.0470   -2.6151 H   0  0  0  0  0  0  0  0  0  0  0  0
   22.1266  -11.8077   -2.4087 H   0  0  0  0  0  0  0  0  0  0  0  0
   20.7323  -12.8862   -0.2188 H   0  0  0  0  0  0  0  0  0  0  0  0
   21.9595  -11.1473    1.8875 H   0  0  0  0  0  0  0  0  0  0  0  0
   21.3625  -11.5812    2.9823 H   0  0  0  0  0  0  0  0  0  0  0  0
   20.7323  -12.0075    4.0580 H   0  0  0  0  0  0  0  0  0  0  0  0
   19.1832  -14.0630    2.5278 H   0  0  0  0  0  0  0  0  0  0  0  0
   18.6016  -14.5570    3.6026 H   0  0  0  0  0  0  0  0  0  0  0  0
   19.9950  -12.4906    5.2726 H   0  0  0  0  0  0  0  0  0  0  0  0
   18.4950  -15.6894    7.6649 H   0  0  0  0  0  0  0  0  0  0  0  0
   20.4892  -15.7895    6.0026 H   0  0  0  0  0  0  0  0  0  0  0  0
   16.0093  -12.8074    6.5400 H   0  0  0  0  0  0  0  0  0  0  0  0
   18.0592  -12.4401    6.9440 H   0  0  0  0  0  0  0  0  0  0  0  0
   16.5491  -14.4075    5.2560 H   0  0  0  0  0  0  0  0  0  0  0  0
   19.1544  -14.1036    2.2561 H   0  0  0  0  0  0  0  0  0  0  0  0
   20.5423  -13.0781   -0.1706 H   0  0  0  0  0  0  0  0  0  0  0  0
   19.5324  -14.3592   -1.1568 H   0  0  0  0  0  0  0  0  0  0  0  0
   18.6825  -14.9743    2.2930 H   0  0  0  0  0  0  0  0  0  0  0  0
   17.6986  -15.9115    2.9282 H   0  0  0  0  0  0  0  0  0  0  0  0
   16.2987  -17.2058    2.3659 H   0  0  0  0  0  0  0  0  0  0  0  0
   14.7666  -18.6152    1.4817 H   0  0  0  0  0  0  0  0  0  0  0  0
   16.2389  -18.9322    0.1843 H   0  0  0  0  0  0  0  0  0  0  0  0
   15.0221  -16.6523    1.6635 H   0  0  0  0  0  0  0  0  0  0  0  0
   15.7311  -17.7322   -2.4302 H   0  0  0  0  0  0  0  0  0  0  0  0
   15.8489  -18.5525   -0.7797 H   0  0  0  0  0  0  0  0  0  0  0  0
   16.4720  -15.9391   -1.9973 H   0  0  0  0  0  0  0  0  0  0  0  0
   18.6358  -14.9237   -1.2201 H   0  0  0  0  0  0  0  0  0  0  0  0
   18.0666  -15.1366   -2.4074 H   0  0  0  0  0  0  0  0  0  0  0  0
   16.3132  -17.3676   -1.5049 H   0  0  0  0  0  0  0  0  0  0  0  0
   18.1421  -16.2406   -3.5516 H   0  0  0  0  0  0  0  0  0  0  0  0
   15.3653  -17.0246   -2.7305 H   0  0  0  0  0  0  0  0  0  0  0  0
   15.5531  -17.8323   -3.4425 H   0  0  0  0  0  0  0  0  0  0  0  0
   14.8834  -18.4696   -4.1980 H   0  0  0  0  0  0  0  0  0  0  0  0
   14.3961  -18.8761   -5.8006 H   0  0  0  0  0  0  0  0  0  0  0  0
   16.3967  -16.6577   -9.3311 H   0  0  0  0  0  0  0  0  0  0  0  0
   15.6248  -17.3893  -10.2552 H   0  0  0  0  0  0  0  0  0  0  0  0
   14.3264  -18.7923   -8.6415 H   0  0  0  0  0  0  0  0  0  0  0  0
   18.1540  -14.8604   -9.6477 H   0  0  0  0  0  0  0  0  0  0  0  0
   16.5824  -16.3560  -11.4205 H   0  0  0  0  0  0  0  0  0  0  0  0
   15.4542  -17.5144  -11.1336 H   0  0  0  0  0  0  0  0  0  0  0  0
   14.3191  -18.7258  -10.0002 H   0  0  0  0  0  0  0  0  0  0  0  0
   16.6697  -16.4808   -7.4972 H   0  0  0  0  0  0  0  0  0  0  0  0
   16.2239  -16.9507   -7.1625 H   0  0  0  0  0  0  0  0  0  0  0  0
   18.5577  -14.7895   -3.4300 H   0  0  0  0  0  0  0  0  0  0  0  0
   17.6027  -15.7604   -3.3660 H   0  0  0  0  0  0  0  0  0  0  0  0
  1  2  2  3
  2  3  1  0
  3  4  1  0
  4  5  1  0
  5  6  1  0
  4  7  1  0
  7  8  1  0
  7  9  1  0
  9 10  1  0
 10 11  1  0
 11 12  1  0
 12 13  1  0
 13 14  2  3
 13 15  1  0
 10 16  1  0
 16 17  1  0
 17 18  1  0
 18 19  1  0
 19 20  1  0
 20 21  1  0
 20 22  1  0
 20 23  1  0
 23 24  1  0
 24 25  1  0
 25 26  1  0
 26 27  1  0
 27 28  1  0
 28 29  1  0
 29 30  1  0
 29 31  1  0
 31 32  1  0
 32 33  1  0
 33 34  1  0
 34 35  1  0
 35 36  1  0
 31 37  1  0
 37 38  1  0
 38 39  1  0
 39 40  1  0
 40 41  1  0
 40 42  1  0
 42 43  1  0
 42 44  1  0
 38 45  1  0
 23 18  1  0
 45 26  1  0
 35 28  1  0
 42 37  1  0
 36 33  1  0
 45 37  1  0
  1 46  1  0
  1 47  1  0
  2 48  1  0
  3 49  1  0
  3 50  1  0
  4 51  1  0
  5 52  1  0
  6 53  1  0
  6 54  1  0
  6 55  1  0
  7 56  1  0
  8 57  1  0
  8 58  1  0
  8 59  1  0
  9 60  1  0
  9 61  1  0
 10 62  1  0
 11 63  1  0
 11 64  1  0
 12 65  1  0
 12 66  1  0
 14 67  1  0
 14 68  1  0
 15 69  1  0
 15 70  1  0
 15 71  1  0
 16 72  1  0
 16 73  1  0
 17 74  1  0
 18 75  1  0
 19 76  1  0
 19 77  1  0
 21 78  1  0
 21 79  1  0
 21 80  1  0
 22 81  1  0
 22 82  1  0
 22 83  1  0
 23 84  1  0
 24 85  1  0
 24 86  1  0
 25 87  1  0
 25 88  1  0
 26 89  1  0
 27 90  1  0
 27 91  1  0
 29 92  1  0
 30 93  1  0
 30 94  1  0
 32 95  1  0
 33 96  1  0
 34 97  1  0
 34 98  1  0
 36 99  1  0
 36100  1  0
 38101  1  0
 45102  1  0
M  END
