
     RDKit          2D

 46 50  0  0  0  0  0  0  0  0999 V2000
   13.1929  -20.4069  -10.8176 C   0  0  0  0  0  0  0  0  0  0  0  0
   14.3292  -20.6790   -9.8770 C   0  0  0  0  0  0  0  0  0  0  0  0
   13.9115  -20.6122   -8.4379 C   0  0  0  0  0  0  0  0  0  0  0  0
   14.6081  -20.7927   -7.1218 C   0  0  0  0  0  0  0  0  0  0  0  0
   16.0109  -21.1149   -6.6995 C   0  0  0  0  0  0  0  0  0  0  0  0
   17.2982  -21.3900   -7.4187 N   0  0  0  0  0  0  0  0  0  0  0  0
   17.7159  -21.4568   -8.8578 C   0  0  0  0  0  0  0  0  0  0  0  0
   17.0193  -21.2763  -10.1739 C   0  0  0  0  0  0  0  0  0  0  0  0
   15.6165  -20.9541  -10.5960 C   0  0  0  0  0  0  0  0  0  0  0  0
   16.3830  -21.1020  -11.8768 C   0  0  0  0  0  0  0  0  0  0  0  0
   17.1496  -21.2500  -13.1577 C   0  0  0  0  0  0  0  0  0  0  0  0
   17.4434  -21.2884  -14.6281 N   0  0  0  0  0  0  0  0  0  0  0  0
   16.0547  -20.9862  -14.1485 C   0  0  0  0  0  0  0  0  0  0  0  0
   14.8330  -20.7279  -13.3174 C   0  0  0  0  0  0  0  0  0  0  0  0
   14.0269  -20.5241  -14.5658 C   0  0  0  0  0  0  0  0  0  0  0  0
   15.2486  -20.7823  -15.3969 C   0  0  0  0  0  0  0  0  0  0  0  0
   16.4703  -21.0406  -16.2280 O   0  0  0  0  0  0  0  0  0  0  0  0
   16.8696  -21.3299   -5.4886 C   0  0  0  0  0  0  0  0  0  0  0  0
   16.2723  -21.2216   -4.1168 C   0  0  0  0  0  0  0  0  0  0  0  0
   15.4137  -21.0066   -5.3279 C   0  0  0  0  0  0  0  0  0  0  0  0
   11.8257  -20.1106  -10.2765 H   0  0  0  0  0  0  0  0  0  0  0  0
   13.2460  -20.3909  -12.3167 H   0  0  0  0  0  0  0  0  0  0  0  0
   12.6645  -20.3183   -9.2180 H   0  0  0  0  0  0  0  0  0  0  0  0
   12.7336  -20.3649   -7.5426 H   0  0  0  0  0  0  0  0  0  0  0  0
   13.2364  -20.4952   -6.5927 H   0  0  0  0  0  0  0  0  0  0  0  0
   14.3897  -20.7714   -5.6378 H   0  0  0  0  0  0  0  0  0  0  0  0
   18.5385  -21.6826   -6.6274 H   0  0  0  0  0  0  0  0  0  0  0  0
   18.9629  -21.7508   -8.0775 H   0  0  0  0  0  0  0  0  0  0  0  0
   18.8938  -21.7041   -9.7530 H   0  0  0  0  0  0  0  0  0  0  0  0
   18.2539  -21.5440  -10.6499 H   0  0  0  0  0  0  0  0  0  0  0  0
   17.3513  -21.3354  -10.9930 H   0  0  0  0  0  0  0  0  0  0  0  0
   15.0224  -20.8090  -11.2368 H   0  0  0  0  0  0  0  0  0  0  0  0
   15.5335  -20.9088  -12.0358 H   0  0  0  0  0  0  0  0  0  0  0  0
   17.0905  -21.2665  -11.5483 H   0  0  0  0  0  0  0  0  0  0  0  0
   18.5107  -21.5651  -12.6118 H   0  0  0  0  0  0  0  0  0  0  0  0
   18.4150  -21.4852  -15.7540 H   0  0  0  0  0  0  0  0  0  0  0  0
   13.5222  -20.4467  -12.6447 H   0  0  0  0  0  0  0  0  0  0  0  0
   15.1477  -20.8256  -11.8540 H   0  0  0  0  0  0  0  0  0  0  0  0
   13.2207  -20.3202  -15.8143 H   0  0  0  0  0  0  0  0  0  0  0  0
   12.8051  -20.2658  -13.7348 H   0  0  0  0  0  0  0  0  0  0  0  0
   14.4425  -20.5785  -16.6453 H   0  0  0  0  0  0  0  0  0  0  0  0
   16.3858  -20.9808  -17.7244 H   0  0  0  0  0  0  0  0  0  0  0  0
   18.3330  -21.6582   -5.4663 H   0  0  0  0  0  0  0  0  0  0  0  0
   17.4847  -21.5087   -3.2816 H   0  0  0  0  0  0  0  0  0  0  0  0
   15.2540  -21.0135   -3.0353 H   0  0  0  0  0  0  0  0  0  0  0  0
   13.9870  -20.6933   -4.9866 H   0  0  0  0  0  0  0  0  0  0  0  0
  1  2  2  3
  2  3  1  0
  3  4  1  0
  4  5  1  0
  5  6  1  0
  6  7  1  0
  7  8  1  0
  8  9  1  0
  9 10  1  0
 10 11  1  0
 11 12  1  0
 12 13  1  0
 13 14  1  0
 14 15  1  0
 15 16  1  0
 16 17  1  0
  5 18  1  0
 18 19  1  0
 19 20  1  0
  9  2  1  0
 13 11  1  0
 20 18  1  0
 20  5  1  0
 16 13  1  0
  1 21  1  0
  1 22  1  0
  3 23  1  0
  3 24  1  0
  4 25  1  0
  4 26  1  0
  6 27  1  0
  7 28  1  0
  7 29  1  0
  8 30  1  0
  8 31  1  0
  9 32  1  0
 10 33  1  0
 10 34  1  0
 11 35  1  0
 12 36  1  0
 14 37  1  0
 14 38  1  0
 15 39  1  0
 15 40  1  0
 16 41  1  0
 17 42  1  0
 18 43  1  0
 19 44  1  0
 19 45  1  0
 20 46  1  0
M  END
