
     RDKit          2D

 39 39  0  0  0  0  0  0  0  0999 V2000
    6.7348   25.6884    9.1307 C   0  0  0  0  0  0  0  0  0  0  0  0
    5.6254   25.9068    8.1450 C   0  0  0  0  0  0  0  0  0  0  0  0
    4.5161   26.1253    7.1594 C   0  0  0  0  0  0  0  0  0  0  0  0
    3.4067   26.3438    6.1737 C   0  0  0  0  0  0  0  0  0  0  0  0
    2.2974   26.5622    5.1880 O   0  0  0  0  0  0  0  0  0  0  0  0
    1.3434   27.7048    5.3734 N   0  0  0  0  0  0  0  0  0  0  0  0
    0.2340   27.9232    4.3877 C   0  0  0  0  0  0  0  0  0  0  0  0
   -0.8753   28.1417    3.4020 N   0  0  0  0  0  0  0  0  0  0  0  0
   -1.8293   29.2842    3.5875 O   0  0  0  0  0  0  0  0  0  0  0  0
   -1.6739   30.2084    4.7587 O   0  0  0  0  0  0  0  0  0  0  0  0
   -2.6279   31.3510    4.9442 C   0  0  0  0  0  0  0  0  0  0  0  0
   -1.0307   27.2175    2.2307 C   0  0  0  0  0  0  0  0  0  0  0  0
    0.0327   26.4677    2.5909 Br  0  0  0  0  0  0  0  0  0  0  0  0
   -2.2308   27.8308    1.5724 N   0  0  0  0  0  0  0  0  0  0  0  0
   -1.5841   26.6178    0.9722 C   0  0  0  0  0  0  0  0  0  0  0  0
   -0.6302   25.4752    0.7867 C   0  0  0  0  0  0  0  0  0  0  0  0
    0.3238   24.3326    0.6011 C   0  0  0  0  0  0  0  0  0  0  0  0
    1.2777   23.1899    0.4155 Br  0  0  0  0  0  0  0  0  0  0  0  0
    7.8441   25.4699   10.1164 H   0  0  0  0  0  0  0  0  0  0  0  0
    7.2283   24.5281    8.3182 H   0  0  0  0  0  0  0  0  0  0  0  0
    6.2412   26.8486    9.9433 H   0  0  0  0  0  0  0  0  0  0  0  0
    6.0863   24.7134    7.3618 H   0  0  0  0  0  0  0  0  0  0  0  0
    5.1645   27.1002    8.9282 H   0  0  0  0  0  0  0  0  0  0  0  0
    4.0550   27.3186    7.9427 H   0  0  0  0  0  0  0  0  0  0  0  0
    4.9771   24.9320    6.3760 H   0  0  0  0  0  0  0  0  0  0  0  0
    2.7098   27.2378    7.1560 H   0  0  0  0  0  0  0  0  0  0  0  0
    4.1035   25.4497    5.1913 H   0  0  0  0  0  0  0  0  0  0  0  0
    1.4987   28.6290    6.5446 H   0  0  0  0  0  0  0  0  0  0  0  0
    0.7642   26.8030    3.5427 H   0  0  0  0  0  0  0  0  0  0  0  0
   -0.2962   29.0434    5.2327 H   0  0  0  0  0  0  0  0  0  0  0  0
   -3.5820   32.4936    5.1295 H   0  0  0  0  0  0  0  0  0  0  0  0
   -3.3590   30.9424    3.6997 H   0  0  0  0  0  0  0  0  0  0  0  0
   -1.8968   31.7596    6.1885 H   0  0  0  0  0  0  0  0  0  0  0  0
   -3.2971   28.8853    1.5388 H   0  0  0  0  0  0  0  0  0  0  0  0
   -2.4688   26.4149   -0.2220 H   0  0  0  0  0  0  0  0  0  0  0  0
    0.1270   25.7140    1.8785 H   0  0  0  0  0  0  0  0  0  0  0  0
   -1.3605   25.0674   -0.4584 H   0  0  0  0  0  0  0  0  0  0  0  0
   -0.4059   23.9258   -0.6448 H   0  0  0  0  0  0  0  0  0  0  0  0
    1.0534   24.7393    1.8470 H   0  0  0  0  0  0  0  0  0  0  0  0
  1  2  1  0
  2  3  1  0
  3  4  1  0
  4  5  1  0
  5  6  1  0
  6  7  1  0
  7  8  1  0
  8  9  1  0
  9 10  1  0
 10 11  1  0
  8 12  1  0
 12 13  1  0
 12 14  1  0
 14 15  1  0
 15 16  1  0
 16 17  1  0
 17 18  1  0
 15 12  1  0
  1 19  1  0
  1 20  1  0
  1 21  1  0
  2 22  1  0
  2 23  1  0
  3 24  1  0
  3 25  1  0
  4 26  1  0
  4 27  1  0
  6 28  1  0
  7 29  1  0
  7 30  1  0
 11 31  1  0
 11 32  1  0
 11 33  1  0
 14 34  1  0
 15 35  1  0
 16 36  1  0
 16 37  1  0
 17 38  1  0
 17 39  1  0
M  END
