
     RDKit          2D

 27 28  0  0  0  0  0  0  0  0999 V2000
   15.5960  -19.5384   -6.6151 O   0  0  0  0  0  0  0  0  0  0  0  0
   16.2311  -20.8702   -6.3448 C   0  0  0  0  0  0  0  0  0  0  0  0
   16.2252  -21.4358   -4.9556 C   0  0  0  0  0  0  0  0  0  0  0  0
   16.8604  -22.7676   -4.6853 C   0  0  0  0  0  0  0  0  0  0  0  0
   17.5014  -23.5337   -5.8043 C   0  0  0  0  0  0  0  0  0  0  0  0
   17.5072  -22.9681   -7.1936 C   0  0  0  0  0  0  0  0  0  0  0  0
   16.8721  -21.6364   -7.4638 C   0  0  0  0  0  0  0  0  0  0  0  0
   16.8779  -21.0707   -8.8531 C   0  0  0  0  0  0  0  0  0  0  0  0
   16.5635  -20.0355   -9.8922 C   0  0  0  0  0  0  0  0  0  0  0  0
   16.8885  -20.0515  -11.3565 C   0  0  0  0  0  0  0  0  0  0  0  0
   17.6080  -21.1064  -12.1433 C   0  0  0  0  0  0  0  0  0  0  0  0
   18.1804  -22.4061  -11.6603 C   0  0  0  0  0  0  0  0  0  0  0  0
   18.1746  -22.9717  -10.2711 C   0  0  0  0  0  0  0  0  0  0  0  0
   17.5949  -22.3773   -9.0218 N   0  0  0  0  0  0  0  0  0  0  0  0
   14.9550  -18.7723   -5.4960 H   0  0  0  0  0  0  0  0  0  0  0  0
   15.5843  -20.6697   -3.8366 H   0  0  0  0  0  0  0  0  0  0  0  0
   16.8546  -23.3332   -3.2961 H   0  0  0  0  0  0  0  0  0  0  0  0
   18.1365  -24.8654   -5.5341 H   0  0  0  0  0  0  0  0  0  0  0  0
   17.9090  -23.4959   -7.7805 H   0  0  0  0  0  0  0  0  0  0  0  0
   16.1583  -20.0157   -8.0663 H   0  0  0  0  0  0  0  0  0  0  0  0
   15.8267  -18.8243   -9.4021 H   0  0  0  0  0  0  0  0  0  0  0  0
   16.4336  -18.8540  -12.1371 H   0  0  0  0  0  0  0  0  0  0  0  0
   17.7777  -20.8245  -13.6068 H   0  0  0  0  0  0  0  0  0  0  0  0
   18.8467  -23.2519  -12.7046 H   0  0  0  0  0  0  0  0  0  0  0  0
   18.8942  -24.0267  -11.0580 H   0  0  0  0  0  0  0  0  0  0  0  0
   18.4890  -24.0068   -9.2319 H   0  0  0  0  0  0  0  0  0  0  0  0
   17.8105  -22.9856   -8.5538 H   0  0  0  0  0  0  0  0  0  0  0  0
  1  2  1  0
  2  3  2  0
  3  4  1  0
  4  5  2  0
  5  6  1  0
  6  7  2  0
  7  8  1  0
  8  9  1  0
  9 10  2  0
 10 11  1  0
 11 12  2  0
 12 13  1  0
 13 14  1  0
  7  2  1  0
 14  8  1  0
  1 15  1  0
  3 16  1  0
  4 17  1  0
  5 18  1  0
  6 19  1  0
  8 20  1  0
  9 21  1  0
 10 22  1  0
 11 23  1  0
 12 24  1  0
 13 25  1  0
 13 26  1  0
 14 27  1  0
M  END
