
     RDKit          2D

101113  0  0  0  0  0  0  0  0999 V2000
   -2.4671   27.8848    8.3189 C   0  0  0  0  0  0  0  0  0  0  0  0
   -1.6284   28.1278    7.0992 C   0  0  0  0  0  0  0  0  0  0  0  0
   -1.4891   29.6159    6.9719 C   0  0  0  0  0  0  0  0  0  0  0  0
   -0.9214   30.7685    6.1978 C   0  0  0  0  0  0  0  0  0  0  0  0
   -0.1057   31.2196    5.0226 C   0  0  0  0  0  0  0  0  0  0  0  0
    0.3999   32.4582    4.3441 C   0  0  0  0  0  0  0  0  0  0  0  0
    0.6991   30.8262    3.8194 C   0  0  0  0  0  0  0  0  0  0  0  0
    1.2374   29.7129    2.9705 N   0  0  0  0  0  0  0  0  0  0  0  0
    1.3385   28.2333    2.7450 C   0  0  0  0  0  0  0  0  0  0  0  0
    0.4944   28.2276    3.9850 C   0  0  0  0  0  0  0  0  0  0  0  0
    0.0438   26.9263    4.5795 C   0  0  0  0  0  0  0  0  0  0  0  0
   -0.6241   25.9582    5.5105 C   0  0  0  0  0  0  0  0  0  0  0  0
   -1.2953   26.7768    6.5393 O   0  0  0  0  0  0  0  0  0  0  0  0
   -0.8032   24.4807    5.6968 C   0  0  0  0  0  0  0  0  0  0  0  0
   -0.4099   23.1851    5.0513 C   0  0  0  0  0  0  0  0  0  0  0  0
    0.3719   22.6776    3.8761 C   0  0  0  0  0  0  0  0  0  0  0  0
    1.1764   23.1958    2.7209 C   0  0  0  0  0  0  0  0  0  0  0  0
    2.0204   23.2015    1.4810 C   0  0  0  0  0  0  0  0  0  0  0  0
    1.6271   24.4971    2.1264 C   0  0  0  0  0  0  0  0  0  0  0  0
    1.5131   25.9727    2.3707 C   0  0  0  0  0  0  0  0  0  0  0  0
    2.3476   25.8043    1.1357 C   0  0  0  0  0  0  0  0  0  0  0  0
    3.1821   25.6359   -0.0993 C   0  0  0  0  0  0  0  0  0  0  0  0
    4.0166   25.4675   -1.3343 C   0  0  0  0  0  0  0  0  0  0  0  0
    0.8878   26.9320    3.3395 C   0  0  0  0  0  0  0  0  0  0  0  0
   -0.8605   21.8837    5.6458 C   0  0  0  0  0  0  0  0  0  0  0  0
   -1.3112   20.5824    6.2403 C   0  0  0  0  0  0  0  0  0  0  0  0
   -1.9006   19.4643    7.0482 C   0  0  0  0  0  0  0  0  0  0  0  0
   -2.6582   20.0689    8.1930 C   0  0  0  0  0  0  0  0  0  0  0  0
   -2.5371   21.5607    8.0926 C   0  0  0  0  0  0  0  0  0  0  0  0
   -3.3811   21.5550    9.3326 C   0  0  0  0  0  0  0  0  0  0  0  0
   -1.7046   21.8780    6.8858 C   0  0  0  0  0  0  0  0  0  0  0  0
   -2.0980   23.1736    7.5313 C   0  0  0  0  0  0  0  0  0  0  0  0
   -2.9420   23.1679    8.7713 C   0  0  0  0  0  0  0  0  0  0  0  0
   -1.6473   24.4750    6.9368 C   0  0  0  0  0  0  0  0  0  0  0  0
   -1.0537   23.4545    6.0114 C   0  0  0  0  0  0  0  0  0  0  0  0
   -1.4375   23.7840    6.5926 C   0  0  0  0  0  0  0  0  0  0  0  0
   -0.4721   22.6718    5.1160 C   0  0  0  0  0  0  0  0  0  0  0  0
   -0.7919   21.2610    5.5125 O   0  0  0  0  0  0  0  0  0  0  0  0
   -0.0100   20.7535    4.3372 C   0  0  0  0  0  0  0  0  0  0  0  0
   -0.5566   21.8539    5.1976 C   0  0  0  0  0  0  0  0  0  0  0  0
   -1.1400   20.7261    5.9962 C   0  0  0  0  0  0  0  0  0  0  0  0
   -0.1523   24.0827    4.7196 C   0  0  0  0  0  0  0  0  0  0  0  0
    0.6295   23.5753    3.5443 C   0  0  0  0  0  0  0  0  0  0  0  0
    0.3097   22.1644    3.9408 C   0  0  0  0  0  0  0  0  0  0  0  0
   -2.9739   29.0445    9.1240 H   0  0  0  0  0  0  0  0  0  0  0  0
   -2.7989   26.4819    8.7335 H   0  0  0  0  0  0  0  0  0  0  0  0
   -1.9818   30.7950    7.7573 H   0  0  0  0  0  0  0  0  0  0  0  0
   -2.3220   29.3027    8.1795 H   0  0  0  0  0  0  0  0  0  0  0  0
   -0.9650   32.2611    6.3395 H   0  0  0  0  0  0  0  0  0  0  0  0
   -1.6520   31.4648    7.3075 H   0  0  0  0  0  0  0  0  0  0  0  0
   -0.4910   32.5234    5.6566 H   0  0  0  0  0  0  0  0  0  0  0  0
    0.9056   33.6968    3.6655 H   0  0  0  0  0  0  0  0  0  0  0  0
   -0.3530   33.3044    5.3274 H   0  0  0  0  0  0  0  0  0  0  0  0
    1.2089   31.7693    3.2852 H   0  0  0  0  0  0  0  0  0  0  0  0
    1.5204   31.2385    2.6340 H   0  0  0  0  0  0  0  0  0  0  0  0
    0.8833   32.3021    3.6257 H   0  0  0  0  0  0  0  0  0  0  0  0
    2.0137   30.3629    1.8637 H   0  0  0  0  0  0  0  0  0  0  0  0
    2.0860   28.9880    1.6859 H   0  0  0  0  0  0  0  0  0  0  0  0
    0.1010   29.5233    4.6305 H   0  0  0  0  0  0  0  0  0  0  0  0
   -0.5816   27.8857    5.5483 H   0  0  0  0  0  0  0  0  0  0  0  0
   -1.2082   26.9957    6.4228 H   0  0  0  0  0  0  0  0  0  0  0  0
   -0.4577   21.6858    5.0436 H   0  0  0  0  0  0  0  0  0  0  0  0
    0.1123   21.2324    4.1824 H   0  0  0  0  0  0  0  0  0  0  0  0
    0.7609   21.3776    3.2368 H   0  0  0  0  0  0  0  0  0  0  0  0
    1.3915   21.7636    2.3303 H   0  0  0  0  0  0  0  0  0  0  0  0
    2.1344   21.7259    1.2367 H   0  0  0  0  0  0  0  0  0  0  0  0
    2.8503   23.5443    0.2793 H   0  0  0  0  0  0  0  0  0  0  0  0
    2.4569   24.8399    0.9249 H   0  0  0  0  0  0  0  0  0  0  0  0
    1.8778   27.3516    1.9066 H   0  0  0  0  0  0  0  0  0  0  0  0
    2.4838   27.2939    1.0247 H   0  0  0  0  0  0  0  0  0  0  0  0
    2.3141   24.3052    1.0954 H   0  0  0  0  0  0  0  0  0  0  0  0
    3.2809   27.1264   -0.2357 H   0  0  0  0  0  0  0  0  0  0  0  0
    3.1857   24.1360   -0.1144 H   0  0  0  0  0  0  0  0  0  0  0  0
    4.8511   25.2991   -2.5693 H   0  0  0  0  0  0  0  0  0  0  0  0
    4.9871   26.4878   -0.8177 H   0  0  0  0  0  0  0  0  0  0  0  0
    3.0461   24.4471   -1.8510 H   0  0  0  0  0  0  0  0  0  0  0  0
   -1.3660   23.0454    6.4490 H   0  0  0  0  0  0  0  0  0  0  0  0
   -1.2372   18.5876    6.0278 H   0  0  0  0  0  0  0  0  0  0  0  0
   -2.3513   18.1630    7.6427 H   0  0  0  0  0  0  0  0  0  0  0  0
   -2.9505   18.6412    8.5481 H   0  0  0  0  0  0  0  0  0  0  0  0
   -3.4962   20.1939    9.4308 H   0  0  0  0  0  0  0  0  0  0  0  0
   -2.7947   22.9676    8.5444 H   0  0  0  0  0  0  0  0  0  0  0  0
   -4.2251   21.5493   10.5725 H   0  0  0  0  0  0  0  0  0  0  0  0
   -3.3895   22.9064    9.9835 H   0  0  0  0  0  0  0  0  0  0  0  0
   -3.7968   20.1153    9.2642 H   0  0  0  0  0  0  0  0  0  0  0  0
   -3.7757   23.3450   10.0056 H   0  0  0  0  0  0  0  0  0  0  0  0
   -2.9089   24.6672    8.8007 H   0  0  0  0  0  0  0  0  0  0  0  0
   -3.3675   21.8415    9.3275 H   0  0  0  0  0  0  0  0  0  0  0  0
   -2.0406   25.7706    7.5822 H   0  0  0  0  0  0  0  0  0  0  0  0
   -0.4424   24.5351    5.1694 H   0  0  0  0  0  0  0  0  0  0  0  0
   -0.4100   22.5338    5.0176 H   0  0  0  0  0  0  0  0  0  0  0  0
   -1.3311   21.6817    6.3268 H   0  0  0  0  0  0  0  0  0  0  0  0
    0.3167   19.3971    3.7865 H   0  0  0  0  0  0  0  0  0  0  0  0
   -1.3658   22.2221    6.4059 H   0  0  0  0  0  0  0  0  0  0  0  0
   -1.5582   19.3927    6.5413 H   0  0  0  0  0  0  0  0  0  0  0  0
   -0.5291   19.7382    5.0471 H   0  0  0  0  0  0  0  0  0  0  0  0
   -1.9194   21.2441    7.1684 H   0  0  0  0  0  0  0  0  0  0  0  0
   -0.1781   25.5781    4.8353 H   0  0  0  0  0  0  0  0  0  0  0  0
    1.4655   23.4244    2.3081 H   0  0  0  0  0  0  0  0  0  0  0  0
    0.9492   24.9862    3.1479 H   0  0  0  0  0  0  0  0  0  0  0  0
   -0.5053   22.4961    5.1556 H   0  0  0  0  0  0  0  0  0  0  0  0
  1  2  2  3
  2  3  1  0
  3  4  1  0
  4  5  1  0
  5  6  1  0
  5  7  1  0
  7  8  1  0
  8  9  1  0
  9 10  1  0
 10 11  1  0
 11 12  1  0
 12 13  1  0
 12 14  1  0
 14 15  1  0
 15 16  1  0
 16 17  1  0
 17 18  1  0
 18 19  1  0
 19 20  1  0
 20 21  1  0
 21 22  1  0
 22 23  1  0
 20 24  1  0
 15 25  1  0
 25 26  1  0
 26 27  1  0
 27 28  1  0
 28 29  1  0
 29 30  1  0
 29 31  1  0
 31 32  1  0
 32 33  1  0
 32 34  1  0
 34 35  1  0
 32 36  1  0
 36 37  1  0
 37 38  1  0
 38 39  1  0
 39 40  1  0
 40 41  1  0
 40 42  1  0
 42 43  1  0
 43 44  1  0
 13  2  1  0
 34 14  1  0
 42 37  1  0
 24  9  1  0
 31 25  1  0
 44 37  1  0
 24 10  1  0
 31 26  1  0
 44 39  1  0
 24 11  1  0
 35 26  1  0
 36 14  1  0
 19 17  1  0
  1 45  1  0
  1 46  1  0
  3 47  1  0
  3 48  1  0
  4 49  1  0
  4 50  1  0
  5 51  1  0
  6 52  1  0
  6 53  1  0
  6 54  1  0
  7 55  1  0
  7 56  1  0
  8 57  1  0
  9 58  1  0
 10 59  1  0
 11 60  1  0
 12 61  1  0
 15 62  1  0
 16 63  1  0
 16 64  1  0
 17 65  1  0
 18 66  1  0
 18 67  1  0
 19 68  1  0
 20 69  1  0
 21 70  1  0
 21 71  1  0
 22 72  1  0
 22 73  1  0
 23 74  1  0
 23 75  1  0
 23 76  1  0
 25 77  1  0
 27 78  1  0
 27 79  1  0
 28 80  1  0
 28 81  1  0
 29 82  1  0
 30 83  1  0
 30 84  1  0
 30 85  1  0
 33 86  1  0
 33 87  1  0
 33 88  1  0
 34 89  1  0
 35 90  1  0
 35 91  1  0
 36 92  1  0
 39 93  1  0
 40 94  1  0
 41 95  1  0
 41 96  1  0
 41 97  1  0
 42 98  1  0
 43 99  1  0
 43100  1  0
 44101  1  0
M  END
