
     RDKit          2D

 87 93  0  0  0  0  0  0  0  0999 V2000
       nan       nan       nan C   0  0  0  0  0  0  0  0  0  0  0  0
       nan       nan       nan C   0  0  0  0  0  0  0  0  0  0  0  0
       nan       nan       nan C   0  0  0  0  0  0  0  0  0  0  0  0
       nan       nan       nan N   0  0  0  0  0  0  0  0  0  0  0  0
       nan       nan       nan C   0  0  0  0  0  0  0  0  0  0  0  0
       nan       nan       nan C   0  0  0  0  0  0  0  0  0  0  0  0
    0.6061   25.6259    4.9372 C   0  0  0  0  0  0  0  0  0  0  0  0
    1.9168   25.8121    4.2320 C   0  0  0  0  0  0  0  0  0  0  0  0
    3.2275   25.9982    3.5267 C   0  0  0  0  0  0  0  0  0  0  0  0
    4.2880   24.9418    3.6236 C   0  0  0  0  0  0  0  0  0  0  0  0
    4.0378   23.6992    4.4257 C   0  0  0  0  0  0  0  0  0  0  0  0
    4.2709   22.3597    5.0593 C   0  0  0  0  0  0  0  0  0  0  0  0
    5.3426   22.9886    4.2190 C   0  0  0  0  0  0  0  0  0  0  0  0
    6.0459   23.9844    3.3452 C   0  0  0  0  0  0  0  0  0  0  0  0
    6.7493   24.9802    2.4712 C   0  0  0  0  0  0  0  0  0  0  0  0
    8.0540   24.2697    2.2646 C   0  0  0  0  0  0  0  0  0  0  0  0
    9.1257   24.8985    1.4244 N   0  0  0  0  0  0  0  0  0  0  0  0
    7.8209   25.6091    1.6310 C   0  0  0  0  0  0  0  0  0  0  0  0
    7.5878   26.9486    0.9974 C   0  0  0  0  0  0  0  0  0  0  0  0
    7.3547   28.2881    0.3638 C   0  0  0  0  0  0  0  0  0  0  0  0
    8.7205   28.2336   -0.2540 C   0  0  0  0  0  0  0  0  0  0  0  0
    8.4874   29.5730   -0.8877 C   0  0  0  0  0  0  0  0  0  0  0  0
    9.8532   29.5184   -1.5054 C   0  0  0  0  0  0  0  0  0  0  0  0
   11.2190   29.4639   -2.1232 C   0  0  0  0  0  0  0  0  0  0  0  0
   11.1782   30.9470   -2.3444 C   0  0  0  0  0  0  0  0  0  0  0  0
   12.5440   30.8924   -2.9622 C   0  0  0  0  0  0  0  0  0  0  0  0
   12.5848   29.4094   -2.7410 C   0  0  0  0  0  0  0  0  0  0  0  0
   13.9505   29.3548   -3.3588 C   0  0  0  0  0  0  0  0  0  0  0  0
    7.1216   29.6276   -0.2699 C   0  0  0  0  0  0  0  0  0  0  0  0
    2.3733   24.4715    4.7264 C   0  0  0  0  0  0  0  0  0  0  0  0
    2.1133   23.2174    5.5073 C   0  0  0  0  0  0  0  0  0  0  0  0
    1.4026   22.2131    6.3653 C   0  0  0  0  0  0  0  0  0  0  0  0
    0.0148   22.4967    6.8590 N   0  0  0  0  0  0  0  0  0  0  0  0
    2.0797   20.9252    6.7298 C   0  0  0  0  0  0  0  0  0  0  0  0
    2.7569   19.6372    7.0942 C   0  0  0  0  0  0  0  0  0  0  0  0
    1.0626   24.2853    5.4317 C   0  0  0  0  0  0  0  0  0  0  0  0
       nan       nan       nan H   0  0  0  0  0  0  0  0  0  0  0  0
       nan       nan       nan H   0  0  0  0  0  0  0  0  0  0  0  0
       nan       nan       nan H   0  0  0  0  0  0  0  0  0  0  0  0
       nan       nan       nan H   0  0  0  0  0  0  0  0  0  0  0  0
       nan       nan       nan H   0  0  0  0  0  0  0  0  0  0  0  0
       nan       nan       nan H   0  0  0  0  0  0  0  0  0  0  0  0
       nan       nan       nan H   0  0  0  0  0  0  0  0  0  0  0  0
       nan       nan       nan H   0  0  0  0  0  0  0  0  0  0  0  0
       nan       nan       nan H   0  0  0  0  0  0  0  0  0  0  0  0
       nan       nan       nan H   0  0  0  0  0  0  0  0  0  0  0  0
   -0.7046   25.4397    5.6425 H   0  0  0  0  0  0  0  0  0  0  0  0
    1.7437   26.6111    3.8914 H   0  0  0  0  0  0  0  0  0  0  0  0
    3.4778   27.2408    2.7246 H   0  0  0  0  0  0  0  0  0  0  0  0
    4.9846   25.0407    3.2487 H   0  0  0  0  0  0  0  0  0  0  0  0
    2.6854   23.6527    5.0729 H   0  0  0  0  0  0  0  0  0  0  0  0
    3.0270   22.0132    5.8226 H   0  0  0  0  0  0  0  0  0  0  0  0
    4.9592   21.0849    5.4479 H   0  0  0  0  0  0  0  0  0  0  0  0
    6.4030   21.9322    4.3159 H   0  0  0  0  0  0  0  0  0  0  0  0
    5.5172   24.5752    3.2617 H   0  0  0  0  0  0  0  0  0  0  0  0
    7.2466   23.0871    3.2890 H   0  0  0  0  0  0  0  0  0  0  0  0
    5.6888   26.0366    2.3744 H   0  0  0  0  0  0  0  0  0  0  0  0
    8.2871   22.9302    2.8982 H   0  0  0  0  0  0  0  0  0  0  0  0
   10.4977   24.8514    0.8199 H   0  0  0  0  0  0  0  0  0  0  0  0
    9.0592   26.8673    0.7172 H   0  0  0  0  0  0  0  0  0  0  0  0
    6.1340   26.8660    1.3575 H   0  0  0  0  0  0  0  0  0  0  0  0
    5.9890   28.3426    0.9815 H   0  0  0  0  0  0  0  0  0  0  0  0
   10.1045   28.0161   -0.7900 H   0  0  0  0  0  0  0  0  0  0  0  0
    9.1183   26.8974    0.2996 H   0  0  0  0  0  0  0  0  0  0  0  0
    8.2543   30.9125   -1.5212 H   0  0  0  0  0  0  0  0  0  0  0  0
    9.8907   28.0367   -1.7355 H   0  0  0  0  0  0  0  0  0  0  0  0
    9.8156   31.0003   -1.2753 H   0  0  0  0  0  0  0  0  0  0  0  0
   11.2598   27.9808   -1.9020 H   0  0  0  0  0  0  0  0  0  0  0  0
   11.1373   32.4300   -2.5656 H   0  0  0  0  0  0  0  0  0  0  0  0
    9.8176   31.1818   -1.7582 H   0  0  0  0  0  0  0  0  0  0  0  0
   13.8946   31.0190   -3.6023 H   0  0  0  0  0  0  0  0  0  0  0  0
   12.5031   32.3754   -3.1833 H   0  0  0  0  0  0  0  0  0  0  0  0
   12.6255   27.9263   -2.5198 H   0  0  0  0  0  0  0  0  0  0  0  0
   14.1279   27.9574   -2.8432 H   0  0  0  0  0  0  0  0  0  0  0  0
   13.9410   30.7351   -3.9458 H   0  0  0  0  0  0  0  0  0  0  0  0
   15.3163   29.3002   -3.9765 H   0  0  0  0  0  0  0  0  0  0  0  0
    5.7558   29.6821    0.3480 H   0  0  0  0  0  0  0  0  0  0  0  0
    6.8885   30.9671   -0.9035 H   0  0  0  0  0  0  0  0  0  0  0  0
    3.7409   23.9843    4.3493 H   0  0  0  0  0  0  0  0  0  0  0  0
    3.3410   22.3639    5.3879 H   0  0  0  0  0  0  0  0  0  0  0  0
   -0.6958   21.4923    7.7171 H   0  0  0  0  0  0  0  0  0  0  0  0
    0.8650   20.5054    7.5033 H   0  0  0  0  0  0  0  0  0  0  0  0
    3.2944   21.3449    5.9563 H   0  0  0  0  0  0  0  0  0  0  0  0
    3.9726   20.0582    6.3229 H   0  0  0  0  0  0  0  0  0  0  0  0
    1.5412   19.2164    7.8655 H   0  0  0  0  0  0  0  0  0  0  0  0
    3.4340   18.3494    7.4587 H   0  0  0  0  0  0  0  0  0  0  0  0
   -0.0853   23.7585    6.2409 H   0  0  0  0  0  0  0  0  0  0  0  0
  1  2  2  0
  2  3  1  0
  3  4  1  0
  2  5  1  0
  5  6  1  0
  6  7  1  0
  7  8  1  0
  8  9  1  0
  9 10  2  3
 10 11  1  0
 11 12  1  0
 12 13  1  0
 13 14  1  0
 14 15  1  0
 15 16  1  0
 16 17  1  0
 17 18  1  0
 18 19  1  6
 19 20  1  0
 20 21  1  0
 21 22  1  0
 22 23  1  0
 23 24  1  0
 24 25  1  0
 25 26  1  0
 26 27  1  0
 27 28  1  0
 22 29  1  0
  8 30  1  0
 30 31  1  0
 31 32  1  0
 32 33  2  3
 32 34  1  0
 34 35  1  0
 31 36  1  0
 36  7  1  0
 13 11  1  0
 18 15  1  0
 29 20  1  0
 36 30  1  0
 18 16  1  0
 27 24  1  0
  1 37  1  0
  1 38  1  0
  3 39  1  0
  3 40  1  0
  4 41  1  0
  4 42  1  0
  5 43  1  0
  5 44  1  0
  6 45  1  0
  6 46  1  0
  7 47  1  1
  8 48  1  6
  9 49  1  0
 10 50  1  0
 11 51  1  6
 12 52  1  0
 12 53  1  0
 13 54  1  6
 14 55  1  0
 14 56  1  0
 15 57  1  1
 16 58  1  6
 17 59  1  0
 19 60  1  0
 19 61  1  0
 20 62  1  1
 21 63  1  0
 21 64  1  0
 22 65  1  1
 23 66  1  0
 23 67  1  0
 24 68  1  6
 25 69  1  0
 25 70  1  0
 26 71  1  0
 26 72  1  0
 27 73  1  1
 28 74  1  0
 28 75  1  0
 28 76  1  0
 29 77  1  0
 29 78  1  0
 30 79  1  6
 31 80  1  6
 33 81  1  0
 34 82  1  0
 34 83  1  0
 35 84  1  0
 35 85  1  0
 35 86  1  0
 36 87  1  6
M  END
