
     RDKit          2D

 64 69  0  0  0  0  0  0  0  0999 V2000
   11.6776  -24.5804   -1.1530 C   0  0  0  0  0  0  0  0  0  0  0  0
   12.1476  -23.9040   -2.4067 C   0  0  0  0  0  0  0  0  0  0  0  0
   13.5877  -24.3236   -2.4049 C   0  0  0  0  0  0  0  0  0  0  0  0
   14.9784  -24.8520   -2.2135 C   0  0  0  0  0  0  0  0  0  0  0  0
   16.1860  -24.6422   -3.0782 C   0  0  0  0  0  0  0  0  0  0  0  0
   16.7127  -25.5110   -1.9746 C   0  0  0  0  0  0  0  0  0  0  0  0
   17.2393  -26.3797   -0.8710 N   0  0  0  0  0  0  0  0  0  0  0  0
   16.3010  -23.8521   -4.3481 C   0  0  0  0  0  0  0  0  0  0  0  0
   15.2369  -23.0767   -5.0668 C   0  0  0  0  0  0  0  0  0  0  0  0
   13.7950  -22.9000   -4.6931 Si  0  0  0  0  0  4  0  0  0  0  0  0
   13.9100  -22.1099   -5.9630 C   0  0  0  0  0  0  0  0  0  0  0  0
   14.0250  -21.3198   -7.2328 C   0  0  0  0  0  0  0  0  0  0  0  0
   14.1400  -20.5297   -8.5027 C   0  0  0  0  0  0  0  0  0  0  0  0
   14.2552  -19.7397   -9.7726 C   0  0  0  0  0  0  0  0  0  0  0  0
   14.3702  -18.9496  -11.0425 C   0  0  0  0  0  0  0  0  0  0  0  0
   15.8208  -19.1686  -11.3549 C   0  0  0  0  0  0  0  0  0  0  0  0
   16.4257  -18.5498  -12.5802 C   0  0  0  0  0  0  0  0  0  0  0  0
   17.8364  -19.0432  -12.4517 C   0  0  0  0  0  0  0  0  0  0  0  0
   19.2471  -19.5366  -12.3232 C   0  0  0  0  0  0  0  0  0  0  0  0
   19.6630  -18.8145  -11.0759 C   0  0  0  0  0  0  0  0  0  0  0  0
   19.3212  -20.4300  -13.5258 C   0  0  0  0  0  0  0  0  0  0  0  0
   20.5875  -21.1741  -13.8305 C   0  0  0  0  0  0  0  0  0  0  0  0
   20.5135  -20.2807  -12.6278 C   0  0  0  0  0  0  0  0  0  0  0  0
   14.9751  -18.3308  -12.2677 C   0  0  0  0  0  0  0  0  0  0  0  0
   13.0610  -23.4549   -3.5085 C   0  0  0  0  0  0  0  0  0  0  0  0
   11.2077  -25.2567    0.1006 H   0  0  0  0  0  0  0  0  0  0  0  0
   12.6325  -25.0399   -0.8835 H   0  0  0  0  0  0  0  0  0  0  0  0
   10.3001  -24.0284   -1.3716 H   0  0  0  0  0  0  0  0  0  0  0  0
   10.8707  -23.2493   -2.8438 H   0  0  0  0  0  0  0  0  0  0  0  0
   13.4748  -24.8921   -1.4777 H   0  0  0  0  0  0  0  0  0  0  0  0
   14.2444  -25.4070   -1.0288 H   0  0  0  0  0  0  0  0  0  0  0  0
   15.4752  -25.2865   -1.7662 H   0  0  0  0  0  0  0  0  0  0  0  0
   17.6429  -24.9214   -3.3007 H   0  0  0  0  0  0  0  0  0  0  0  0
   18.0931  -24.9737   -2.2105 H   0  0  0  0  0  0  0  0  0  0  0  0
   16.0185  -25.8506   -1.7788 H   0  0  0  0  0  0  0  0  0  0  0  0
   18.6794  -26.7994   -0.8693 H   0  0  0  0  0  0  0  0  0  0  0  0
   16.3259  -26.8288    0.2308 H   0  0  0  0  0  0  0  0  0  0  0  0
   17.7344  -24.2925   -4.3115 H   0  0  0  0  0  0  0  0  0  0  0  0
   17.1829  -23.3828   -5.4670 H   0  0  0  0  0  0  0  0  0  0  0  0
   16.3360  -22.7657   -6.0391 H   0  0  0  0  0  0  0  0  0  0  0  0
   14.8798  -22.2124   -6.2396 H   0  0  0  0  0  0  0  0  0  0  0  0
   12.4042  -22.3716   -4.8847 H   0  0  0  0  0  0  0  0  0  0  0  0
   15.3666  -22.3703   -6.2091 H   0  0  0  0  0  0  0  0  0  0  0  0
   12.4566  -21.7505   -5.8710 H   0  0  0  0  0  0  0  0  0  0  0  0
   12.5761  -20.9454   -7.1312 H   0  0  0  0  0  0  0  0  0  0  0  0
   15.4740  -21.6943   -7.3346 H   0  0  0  0  0  0  0  0  0  0  0  0
   15.5908  -20.8981   -8.6005 H   0  0  0  0  0  0  0  0  0  0  0  0
   12.6893  -20.1614   -8.4050 H   0  0  0  0  0  0  0  0  0  0  0  0
   12.8020  -19.3791   -9.6799 H   0  0  0  0  0  0  0  0  0  0  0  0
   15.7082  -20.1002   -9.8652 H   0  0  0  0  0  0  0  0  0  0  0  0
   12.9595  -18.4562  -11.1710 H   0  0  0  0  0  0  0  0  0  0  0  0
   16.6665  -20.0063  -10.4422 H   0  0  0  0  0  0  0  0  0  0  0  0
   16.5409  -17.7598  -13.8500 H   0  0  0  0  0  0  0  0  0  0  0  0
   17.9999  -18.9637  -13.9406 H   0  0  0  0  0  0  0  0  0  0  0  0
   17.5023  -19.0620  -10.9895 H   0  0  0  0  0  0  0  0  0  0  0  0
   20.0789  -18.0925   -9.8287 H   0  0  0  0  0  0  0  0  0  0  0  0
   18.3039  -18.1861  -10.9865 H   0  0  0  0  0  0  0  0  0  0  0  0
   21.0626  -19.3502  -11.0126 H   0  0  0  0  0  0  0  0  0  0  0  0
   18.1290  -20.5792  -14.4238 H   0  0  0  0  0  0  0  0  0  0  0  0
   20.1717  -21.8962  -15.0777 H   0  0  0  0  0  0  0  0  0  0  0  0
   21.9983  -21.6675  -13.7019 H   0  0  0  0  0  0  0  0  0  0  0  0
   21.7056  -20.1314  -11.7299 H   0  0  0  0  0  0  0  0  0  0  0  0
   14.1295  -17.4931  -13.1805 H   0  0  0  0  0  0  0  0  0  0  0  0
   11.8603  -22.7466   -4.0626 H   0  0  0  0  0  0  0  0  0  0  0  0
  1  2  1  0
  2  3  1  0
  3  4  1  0
  4  5  1  0
  5  6  1  0
  6  7  1  0
  5  8  1  0
  8  9  1  0
  9 10  1  0
 10 11  1  0
 11 12  1  0
 12 13  1  0
 13 14  1  0
 14 15  1  0
 15 16  1  0
 16 17  1  0
 17 18  1  0
 18 19  1  0
 19 20  1  0
 19 21  1  0
 21 22  1  0
 22 23  1  0
 17 24  1  0
 10 25  1  0
 25  2  1  0
 25  3  1  0
 24 15  1  0
 24 16  1  0
 23 19  1  0
 23 21  1  0
  1 26  1  0
  1 27  1  0
  1 28  1  0
  2 29  1  0
  3 30  1  0
  4 31  1  0
  4 32  1  0
  5 33  1  0
  6 34  1  0
  6 35  1  0
  7 36  1  0
  7 37  1  0
  8 38  1  0
  8 39  1  0
  9 40  1  0
  9 41  1  0
 10 42  1  0
 11 43  1  0
 11 44  1  0
 12 45  1  0
 12 46  1  0
 13 47  1  0
 13 48  1  0
 14 49  1  0
 14 50  1  0
 15 51  1  0
 16 52  1  0
 17 53  1  0
 18 54  1  0
 18 55  1  0
 20 56  1  0
 20 57  1  0
 20 58  1  0
 21 59  1  0
 22 60  1  0
 22 61  1  0
 23 62  1  0
 24 63  1  0
 25 64  1  0
M  END
