
     RDKit          2D

113120  0  0  0  0  0  0  0  0999 V2000
    5.7955   16.8401   11.9945 C   0  0  0  0  0  0  0  0  0  0  0  0
    5.4227   17.8116   10.9141 C   0  0  0  0  0  0  0  0  0  0  0  0
    5.0498   18.7832    9.8338 C   0  0  0  0  0  0  0  0  0  0  0  0
    4.6769   19.7547    8.7534 C   0  0  0  0  0  0  0  0  0  0  0  0
    4.3041   20.7262    7.6731 C   0  0  0  0  0  0  0  0  0  0  0  0
    5.3068   20.0911    6.7559 C   0  0  0  0  0  0  0  0  0  0  0  0
    3.9312   21.6977    6.5928 C   0  0  0  0  0  0  0  0  0  0  0  0
    2.9285   22.3328    7.5099 C   0  0  0  0  0  0  0  0  0  0  0  0
    2.3088   23.4355    6.7038 C   0  0  0  0  0  0  0  0  0  0  0  0
    1.8634   23.1976    8.1163 C   0  0  0  0  0  0  0  0  0  0  0  0
    0.8281   24.2751    8.2478 C   0  0  0  0  0  0  0  0  0  0  0  0
   -0.2071   25.3525    8.3795 C   0  0  0  0  0  0  0  0  0  0  0  0
   -1.2569   26.1360    9.1103 C   0  0  0  0  0  0  0  0  0  0  0  0
   -2.0726   27.2940    8.6167 C   0  0  0  0  0  0  0  0  0  0  0  0
   -2.0400   27.9545    7.2703 C   0  0  0  0  0  0  0  0  0  0  0  0
   -3.0990   28.9769    7.5592 C   0  0  0  0  0  0  0  0  0  0  0  0
   -4.0921   29.5875    8.5030 C   0  0  0  0  0  0  0  0  0  0  0  0
   -5.0853   30.1982    9.4468 C   0  0  0  0  0  0  0  0  0  0  0  0
   -6.0784   30.8088   10.3906 C   0  0  0  0  0  0  0  0  0  0  0  0
   -4.6880   29.2106   10.5036 C   0  0  0  0  0  0  0  0  0  0  0  0
   -4.2908   28.2231   11.5606 C   0  0  0  0  0  0  0  0  0  0  0  0
   -3.8936   27.2356   12.6175 O   0  0  0  0  0  0  0  0  0  0  0  0
   -3.7402   30.0884    6.7823 C   0  0  0  0  0  0  0  0  0  0  0  0
   -4.7236   31.2181    6.7021 O   0  0  0  0  0  0  0  0  0  0  0  0
   -5.5800   31.5525    7.8874 C   0  0  0  0  0  0  0  0  0  0  0  0
   -4.9388   30.4410    8.6643 C   0  0  0  0  0  0  0  0  0  0  0  0
   -4.2976   29.3295    9.4411 O   0  0  0  0  0  0  0  0  0  0  0  0
   -6.2213   32.6640    7.1106 N   0  0  0  0  0  0  0  0  0  0  0  0
   -7.2760   33.5160    7.7521 C   0  0  0  0  0  0  0  0  0  0  0  0
   -8.3307   34.3681    8.3937 C   0  0  0  0  0  0  0  0  0  0  0  0
   -3.5880   30.6379    5.3949 C   0  0  0  0  0  0  0  0  0  0  0  0
   -2.7317   30.3035    4.2097 C   0  0  0  0  0  0  0  0  0  0  0  0
   -1.6727   29.2812    3.9208 C   0  0  0  0  0  0  0  0  0  0  0  0
   -1.0315   28.1697    4.6977 N   0  0  0  0  0  0  0  0  0  0  0  0
   -1.1837   27.6202    6.0851 S   0  0  0  0  0  4  0  0  0  0  0  0
   -0.1483   26.5427    5.9535 C   0  0  0  0  0  0  0  0  0  0  0  0
    0.2862   25.5335    6.9746 C   0  0  0  0  0  0  0  0  0  0  0  0
    1.3502   24.6765    6.3555 C   0  0  0  0  0  0  0  0  0  0  0  0
    2.3679   24.0008    5.4850 C   0  0  0  0  0  0  0  0  0  0  0  0
    1.5733   25.1559    4.9518 C   0  0  0  0  0  0  0  0  0  0  0  0
    1.5739   25.8447    3.6193 C   0  0  0  0  0  0  0  0  0  0  0  0
    0.6471   26.3094    4.7033 C   0  0  0  0  0  0  0  0  0  0  0  0
    3.3013   21.3612    8.5903 C   0  0  0  0  0  0  0  0  0  0  0  0
    2.2986   21.9963    9.5074 C   0  0  0  0  0  0  0  0  0  0  0  0
    1.2958   22.6313   10.4246 C   0  0  0  0  0  0  0  0  0  0  0  0
    6.1684   15.8686   13.0747 H   0  0  0  0  0  0  0  0  0  0  0  0
    4.7914   17.4739   12.9109 H   0  0  0  0  0  0  0  0  0  0  0  0
    6.7996   16.2063   11.0779 H   0  0  0  0  0  0  0  0  0  0  0  0
    4.4194   18.4463   11.8311 H   0  0  0  0  0  0  0  0  0  0  0  0
    6.4259   17.1771    9.9972 H   0  0  0  0  0  0  0  0  0  0  0  0
    6.0528   18.1483    8.9167 H   0  0  0  0  0  0  0  0  0  0  0  0
    4.0469   19.4180   10.7508 H   0  0  0  0  0  0  0  0  0  0  0  0
    4.1673   20.5628    9.9099 H   0  0  0  0  0  0  0  0  0  0  0  0
    5.0316   19.1376    8.2261 H   0  0  0  0  0  0  0  0  0  0  0  0
    6.3096   19.4561    5.8387 H   0  0  0  0  0  0  0  0  0  0  0  0
    5.6147   19.4919    7.3309 H   0  0  0  0  0  0  0  0  0  0  0  0
    5.1433   20.5991    6.0489 H   0  0  0  0  0  0  0  0  0  0  0  0
    4.4921   21.3955    5.9774 H   0  0  0  0  0  0  0  0  0  0  0  0
    3.6834   22.5846    5.4087 H   0  0  0  0  0  0  0  0  0  0  0  0
    2.9616   23.4118    5.3535 H   0  0  0  0  0  0  0  0  0  0  0  0
    1.9520   24.0829    6.2157 H   0  0  0  0  0  0  0  0  0  0  0  0
    1.5221   22.8424    9.5329 H   0  0  0  0  0  0  0  0  0  0  0  0
    1.2223   24.5724    6.8314 H   0  0  0  0  0  0  0  0  0  0  0  0
    0.4340   23.9778    9.6643 H   0  0  0  0  0  0  0  0  0  0  0  0
   -0.1092   24.5806    9.6619 H   0  0  0  0  0  0  0  0  0  0  0  0
   -0.9447   25.2042   10.2436 H   0  0  0  0  0  0  0  0  0  0  0  0
   -2.0287   26.3324   10.3814 H   0  0  0  0  0  0  0  0  0  0  0  0
   -2.6780   27.2542    9.9886 H   0  0  0  0  0  0  0  0  0  0  0  0
   -3.1330   28.3108    8.9194 H   0  0  0  0  0  0  0  0  0  0  0  0
   -1.3600   26.8288    7.9917 H   0  0  0  0  0  0  0  0  0  0  0  0
   -3.1023   28.2905    8.8929 H   0  0  0  0  0  0  0  0  0  0  0  0
   -4.4874   30.5767    7.4470 H   0  0  0  0  0  0  0  0  0  0  0  0
   -3.5787   28.5313    9.4360 H   0  0  0  0  0  0  0  0  0  0  0  0
   -5.7110   31.3041    8.6497 H   0  0  0  0  0  0  0  0  0  0  0  0
   -7.0715   31.4194   11.3344 H   0  0  0  0  0  0  0  0  0  0  0  0
   -5.6496   30.0594   11.6171 H   0  0  0  0  0  0  0  0  0  0  0  0
   -6.7493   31.7070    9.3941 H   0  0  0  0  0  0  0  0  0  0  0  0
   -5.6257   29.6961   11.5691 H   0  0  0  0  0  0  0  0  0  0  0  0
   -3.6536   28.4845    9.6959 H   0  0  0  0  0  0  0  0  0  0  0  0
   -5.2852   28.8327   12.5038 H   0  0  0  0  0  0  0  0  0  0  0  0
   -3.2964   27.6136   10.6174 H   0  0  0  0  0  0  0  0  0  0  0  0
   -2.8348   26.2130   12.3285 H   0  0  0  0  0  0  0  0  0  0  0  0
   -4.5853   30.4033    7.9809 H   0  0  0  0  0  0  0  0  0  0  0  0
   -6.5082   32.0199    8.9692 H   0  0  0  0  0  0  0  0  0  0  0  0
   -5.9209   31.0380    9.6282 H   0  0  0  0  0  0  0  0  0  0  0  0
   -3.9568   29.8440    7.7003 H   0  0  0  0  0  0  0  0  0  0  0  0
   -4.4619   28.8036   10.8362 H   0  0  0  0  0  0  0  0  0  0  0  0
   -5.8078   32.9234    5.6922 H   0  0  0  0  0  0  0  0  0  0  0  0
   -7.1453   32.7238    9.0191 H   0  0  0  0  0  0  0  0  0  0  0  0
   -7.4067   34.3082    6.4851 H   0  0  0  0  0  0  0  0  0  0  0  0
   -9.3855   35.2202    9.0352 H   0  0  0  0  0  0  0  0  0  0  0  0
   -8.1992   33.5766    9.6611 H   0  0  0  0  0  0  0  0  0  0  0  0
   -8.4622   35.1595    7.1263 H   0  0  0  0  0  0  0  0  0  0  0  0
   -4.1039   31.6920    4.4606 H   0  0  0  0  0  0  0  0  0  0  0  0
   -4.6495   31.6505    5.7078 H   0  0  0  0  0  0  0  0  0  0  0  0
   -2.4337   30.7054    2.7955 H   0  0  0  0  0  0  0  0  0  0  0  0
   -3.4858   31.4507    3.6053 H   0  0  0  0  0  0  0  0  0  0  0  0
   -0.6796   28.6706    2.9770 H   0  0  0  0  0  0  0  0  0  0  0  0
   -1.6694   29.9675    2.5871 H   0  0  0  0  0  0  0  0  0  0  0  0
   -1.8718   28.7486    5.3760 H   0  0  0  0  0  0  0  0  0  0  0  0
   -0.4014   27.4333    4.7733 H   0  0  0  0  0  0  0  0  0  0  0  0
   -0.7736   26.3648    7.6346 H   0  0  0  0  0  0  0  0  0  0  0  0
    1.5721   23.8085    7.5586 H   0  0  0  0  0  0  0  0  0  0  0  0
    3.0834   22.8638    6.1523 H   0  0  0  0  0  0  0  0  0  0  0  0
    3.2113   23.6887    4.2844 H   0  0  0  0  0  0  0  0  0  0  0  0
    2.6276   25.0442    2.9129 H   0  0  0  0  0  0  0  0  0  0  0  0
    1.2085   26.8115    2.5321 H   0  0  0  0  0  0  0  0  0  0  0  0
    3.5491   20.4744    9.7744 H   0  0  0  0  0  0  0  0  0  0  0  0
    2.6716   21.0249   10.5879 H   0  0  0  0  0  0  0  0  0  0  0  0
    1.6940   23.0925    8.6810 H   0  0  0  0  0  0  0  0  0  0  0  0
    0.2931   23.2664   11.3417 H   0  0  0  0  0  0  0  0  0  0  0  0
    1.6694   21.6605   11.5052 H   0  0  0  0  0  0  0  0  0  0  0  0
    0.8028   23.6724    9.4638 H   0  0  0  0  0  0  0  0  0  0  0  0
  1  2  1  0
  2  3  1  0
  3  4  1  0
  4  5  1  0
  5  6  1  0
  5  7  1  0
  7  8  1  0
  8  9  1  0
  9 10  1  0
 10 11  1  0
 11 12  1  0
 12 13  1  0
 13 14  1  0
 14 15  1  0
 15 16  1  0
 16 17  1  0
 17 18  1  0
 18 19  1  0
 18 20  1  0
 20 21  1  0
 21 22  1  0
 16 23  1  0
 23 24  1  0
 24 25  1  0
 25 26  1  0
 26 27  1  0
 25 28  1  0
 28 29  1  0
 29 30  1  0
 23 31  1  0
 31 32  1  0
 32 33  1  0
 33 34  1  0
 34 35  1  0
 35 36  1  0
 36 37  1  0
 37 38  1  0
 38 39  1  0
 39 40  1  0
 40 41  1  0
 41 42  1  0
  8 43  1  0
 43 44  1  0
 44 45  1  0
 43  5  1  0
 10  8  1  0
 37 12  1  0
 40 38  1  0
 35 15  1  0
 42 36  1  0
 42 34  1  0
 42 40  1  0
  1 46  1  0
  1 47  1  0
  1 48  1  0
  2 49  1  0
  2 50  1  0
  3 51  1  0
  3 52  1  0
  4 53  1  0
  4 54  1  0
  6 55  1  0
  6 56  1  0
  6 57  1  0
  7 58  1  0
  7 59  1  0
  9 60  1  0
  9 61  1  0
 10 62  1  0
 11 63  1  0
 11 64  1  0
 12 65  1  0
 13 66  1  0
 13 67  1  0
 14 68  1  0
 14 69  1  0
 15 70  1  0
 16 71  1  0
 17 72  1  0
 17 73  1  0
 18 74  1  0
 19 75  1  0
 19 76  1  0
 19 77  1  0
 20 78  1  0
 20 79  1  0
 21 80  1  0
 21 81  1  0
 22 82  1  0
 23 83  1  0
 25 84  1  0
 26 85  1  0
 26 86  1  0
 27 87  1  0
 28 88  1  0
 29 89  1  0
 29 90  1  0
 30 91  1  0
 30 92  1  0
 30 93  1  0
 31 94  1  0
 31 95  1  0
 32 96  1  0
 32 97  1  0
 33 98  1  0
 33 99  1  0
 35100  1  0
 36101  1  0
 37102  1  0
 38103  1  0
 39104  1  0
 39105  1  0
 41106  1  0
 41107  1  0
 43108  1  0
 44109  1  0
 44110  1  0
 45111  1  0
 45112  1  0
 45113  1  0
M  END
