
     RDKit          2D

103113  0  0  0  0  0  0  0  0999 V2000
    4.2578   22.5898    7.8930 C   0  0  0  0  0  0  0  0  0  0  0  0
    3.0598   22.9364    8.7265 C   0  0  0  0  0  0  0  0  0  0  0  0
    1.8618   23.2831    9.5601 C   0  0  0  0  0  0  0  0  0  0  0  0
    0.6639   23.6297   10.3935 P   0  0  0  0  0  0  0  0  0  0  0  0
   -0.0870   24.0157    9.1538 C   0  0  0  0  0  0  0  0  0  0  0  0
   -0.9065   24.1882   10.3983 C   0  0  0  0  0  0  0  0  0  0  0  0
   -1.4651   24.5338    8.8664 C   0  0  0  0  0  0  0  0  0  0  0  0
   -2.2160   24.9198    7.6266 C   0  0  0  0  0  0  0  0  0  0  0  0
   -3.4653   25.4274    6.9697 C   0  0  0  0  0  0  0  0  0  0  0  0
   -1.8999   24.9476    6.1606 C   0  0  0  0  0  0  0  0  0  0  0  0
   -3.0352   25.2629    7.0888 C   0  0  0  0  0  0  0  0  0  0  0  0
   -3.3105   25.4549    6.1062 C   0  0  0  0  0  0  0  0  0  0  0  0
   -4.6384   25.8743    6.6637 C   0  0  0  0  0  0  0  0  0  0  0  0
   -6.1386   26.6628    4.0051 N   0  0  0  0  0  0  0  0  0  0  0  0
   -7.0106   27.0830    2.8591 C   0  0  0  0  0  0  0  0  0  0  0  0
   -6.4828   27.0294    1.4561 C   0  0  0  0  0  0  0  0  0  0  0  0
   -5.0830   26.5557    1.1990 C   0  0  0  0  0  0  0  0  0  0  0  0
   -3.6435   25.7541    4.2191 C   0  0  0  0  0  0  0  0  0  0  0  0
   -3.3758   25.5193    5.6763 C   0  0  0  0  0  0  0  0  0  0  0  0
   -3.7504   25.4555    7.7359 C   0  0  0  0  0  0  0  0  0  0  0  0
   -4.3594   25.5413    9.1040 O   0  0  0  0  0  0  0  0  0  0  0  0
   -2.4744   24.9438    8.3360 C   0  0  0  0  0  0  0  0  0  0  0  0
   -1.2799   24.5990    7.4968 C   0  0  0  0  0  0  0  0  0  0  0  0
    0.1331   24.0957    7.4997 C   0  0  0  0  0  0  0  0  0  0  0  0
    1.4271   23.6969    6.8542 C   0  0  0  0  0  0  0  0  0  0  0  0
    0.6761   24.0829    5.6144 N   0  0  0  0  0  0  0  0  0  0  0  0
   -0.7019   24.6009    5.3271 C   0  0  0  0  0  0  0  0  0  0  0  0
   -0.1741   24.5474    3.9240 C   0  0  0  0  0  0  0  0  0  0  0  0
    1.0957   24.1623    3.2247 O   0  0  0  0  0  0  0  0  0  0  0  0
    0.9991   24.0538    4.7176 C   0  0  0  0  0  0  0  0  0  0  0  0
    2.3714   23.5353    5.0305 O   0  0  0  0  0  0  0  0  0  0  0  0
   -0.5181   24.8074    2.4873 C   0  0  0  0  0  0  0  0  0  0  0  0
    0.6798   24.4608    1.6538 C   0  0  0  0  0  0  0  0  0  0  0  0
    0.3359   24.7208    0.2172 C   0  0  0  0  0  0  0  0  0  0  0  0
    1.7357   24.2471   -0.0400 F   0  0  0  0  0  0  0  0  0  0  0  0
   -1.0747   25.2281    0.1627 C   0  0  0  0  0  0  0  0  0  0  0  0
   -0.8312   25.2830   -1.3164 C   0  0  0  0  0  0  0  0  0  0  0  0
   -1.6025   25.2816    1.5658 C   0  0  0  0  0  0  0  0  0  0  0  0
   -3.0130   25.7890    1.5114 C   0  0  0  0  0  0  0  0  0  0  0  0
   -4.2109   26.1356    2.3448 C   0  0  0  0  0  0  0  0  0  0  0  0
   -4.7388   26.1892    3.7479 C   0  0  0  0  0  0  0  0  0  0  0  0
   -4.3949   25.9292    5.1846 C   0  0  0  0  0  0  0  0  0  0  0  0
   -5.8077   26.4224    5.2865 C   0  0  0  0  0  0  0  0  0  0  0  0
    1.1109   23.6691    8.3203 C   0  0  0  0  0  0  0  0  0  0  0  0
   -2.5322   25.1070    6.8461 C   0  0  0  0  0  0  0  0  0  0  0  0
    5.4557   22.2432    7.0595 H   0  0  0  0  0  0  0  0  0  0  0  0
    5.0692   22.3963    9.1397 H   0  0  0  0  0  0  0  0  0  0  0  0
    3.5985   22.7396    6.5540 H   0  0  0  0  0  0  0  0  0  0  0  0
    2.4545   23.2602    7.3929 H   0  0  0  0  0  0  0  0  0  0  0  0
    3.8168   22.5677    9.9678 H   0  0  0  0  0  0  0  0  0  0  0  0
    2.6127   22.8971   10.7999 H   0  0  0  0  0  0  0  0  0  0  0  0
    0.5181   23.5389   11.8837 H   0  0  0  0  0  0  0  0  0  0  0  0
   -1.7258   24.3607   11.6427 H   0  0  0  0  0  0  0  0  0  0  0  0
    0.1369   23.7224   11.3701 H   0  0  0  0  0  0  0  0  0  0  0  0
   -2.1496   24.6961    9.7298 H   0  0  0  0  0  0  0  0  0  0  0  0
   -2.7559   24.9307    9.5193 H   0  0  0  0  0  0  0  0  0  0  0  0
   -1.7571   24.4969   10.3373 H   0  0  0  0  0  0  0  0  0  0  0  0
   -3.2979   25.2093    8.6245 H   0  0  0  0  0  0  0  0  0  0  0  0
   -4.8377   25.9458    6.6569 H   0  0  0  0  0  0  0  0  0  0  0  0
   -4.7243   25.8064    7.6917 H   0  0  0  0  0  0  0  0  0  0  0  0
   -2.8033   25.3202    5.6279 H   0  0  0  0  0  0  0  0  0  0  0  0
   -4.1707   25.5782    8.0170 H   0  0  0  0  0  0  0  0  0  0  0  0
   -4.3134   25.7714    6.4909 H   0  0  0  0  0  0  0  0  0  0  0  0
   -2.8233   25.0504    8.5584 H   0  0  0  0  0  0  0  0  0  0  0  0
   -2.7598   25.3923    4.7123 H   0  0  0  0  0  0  0  0  0  0  0  0
   -5.6710   26.1409    7.7184 H   0  0  0  0  0  0  0  0  0  0  0  0
   -8.2108   27.5819    2.1102 H   0  0  0  0  0  0  0  0  0  0  0  0
   -7.9552   27.3097    4.0021 H   0  0  0  0  0  0  0  0  0  0  0  0
   -6.4355   27.1556   -0.0378 H   0  0  0  0  0  0  0  0  0  0  0  0
   -7.8662   27.5469    1.1945 H   0  0  0  0  0  0  0  0  0  0  0  0
   -4.5552   26.5022   -0.2041 H   0  0  0  0  0  0  0  0  0  0  0  0
   -2.2322   25.2476    4.2629 H   0  0  0  0  0  0  0  0  0  0  0  0
   -2.8954   25.6116    2.9268 H   0  0  0  0  0  0  0  0  0  0  0  0
   -4.6697   25.9181    6.3217 H   0  0  0  0  0  0  0  0  0  0  0  0
   -5.1061   25.8931    8.2056 H   0  0  0  0  0  0  0  0  0  0  0  0
   -5.7689   26.0273    9.2684 H   0  0  0  0  0  0  0  0  0  0  0  0
   -3.2785   25.1099    9.5914 H   0  0  0  0  0  0  0  0  0  0  0  0
   -1.4229   24.5072    8.9872 H   0  0  0  0  0  0  0  0  0  0  0  0
    0.8655   23.7151    8.7523 H   0  0  0  0  0  0  0  0  0  0  0  0
   -0.5818   24.2245    8.8122 H   0  0  0  0  0  0  0  0  0  0  0  0
    2.7821   23.2597    6.3822 H   0  0  0  0  0  0  0  0  0  0  0  0
    1.7500   23.7971    4.6069 H   0  0  0  0  0  0  0  0  0  0  0  0
   -1.1525   24.8954    3.9269 H   0  0  0  0  0  0  0  0  0  0  0  0
    0.7556   23.9988    6.1967 H   0  0  0  0  0  0  0  0  0  0  0  0
    3.3521   23.2924    3.9218 H   0  0  0  0  0  0  0  0  0  0  0  0
   -0.4215   24.9160    0.9944 H   0  0  0  0  0  0  0  0  0  0  0  0
    1.5902   24.0303    2.7655 H   0  0  0  0  0  0  0  0  0  0  0  0
    2.0078   24.0415    1.0964 H   0  0  0  0  0  0  0  0  0  0  0  0
    0.4571   24.8204   -1.2746 H   0  0  0  0  0  0  0  0  0  0  0  0
   -2.3769   25.7431   -0.3748 H   0  0  0  0  0  0  0  0  0  0  0  0
   -0.5876   25.3379   -2.7954 H   0  0  0  0  0  0  0  0  0  0  0  0
   -2.2232   25.8009   -1.5263 H   0  0  0  0  0  0  0  0  0  0  0  0
    0.5802   24.7757   -1.2882 H   0  0  0  0  0  0  0  0  0  0  0  0
   -2.4939   25.7070    0.4368 H   0  0  0  0  0  0  0  0  0  0  0  0
   -4.0974   26.2632    0.5898 H   0  0  0  0  0  0  0  0  0  0  0  0
   -3.9937   26.0319    2.6201 H   0  0  0  0  0  0  0  0  0  0  0  0
   -5.6216   26.6429    2.2904 H   0  0  0  0  0  0  0  0  0  0  0  0
   -5.7882   26.4635    4.7840 H   0  0  0  0  0  0  0  0  0  0  0  0
   -7.2207   26.9155    5.3885 H   0  0  0  0  0  0  0  0  0  0  0  0
   -5.9283   26.3249    6.7785 H   0  0  0  0  0  0  0  0  0  0  0  0
   -6.2002   26.6957    3.8648 H   0  0  0  0  0  0  0  0  0  0  0  0
    2.4660   23.2319    7.8483 H   0  0  0  0  0  0  0  0  0  0  0  0
   -3.9126   25.5631    7.2154 H   0  0  0  0  0  0  0  0  0  0  0  0
  1  2  1  0
  2  3  1  0
  3  4  1  0
  4  5  1  0
  5  6  1  0
  5  7  1  0
  7  8  1  0
  8  9  1  0
  8 10  1  0
 10 11  1  0
 10 12  1  0
 12 13  1  0
 13 14  1  0
 14 15  1  0
 15 16  1  0
 16 17  1  0
 17 18  1  0
 18 19  1  0
 19 20  1  0
 20 21  1  0
 20 22  1  0
 22 23  1  0
 23 24  1  0
 24 25  1  0
 25 26  1  0
 26 27  1  0
 27 28  1  0
 28 29  1  0
 29 30  1  0
 30 31  1  0
 28 32  1  0
 32 33  1  0
 33 34  1  0
 34 35  1  0
 34 36  1  0
 36 37  1  0
 36 38  1  0
 38 39  1  0
 39 40  1  0
 40 41  1  0
 41 42  1  0
 42 43  1  0
 25 44  1  0
 23 45  1  0
 44  3  1  0
 44  5  1  0
 27 10  1  0
 30 28  1  0
 38 32  1  0
 42 12  1  0
 42 13  1  0
 41 14  1  0
 40 17  1  0
 45 19  1  0
 45 22  1  0
  1 46  1  0
  1 47  1  0
  1 48  1  0
  2 49  1  0
  2 50  1  0
  3 51  1  0
  4 52  1  0
  6 53  1  0
  6 54  1  0
  6 55  1  0
  7 56  1  0
  7 57  1  0
  8 58  1  0
  9 59  1  0
  9 60  1  0
  9 61  1  0
 11 62  1  0
 11 63  1  0
 11 64  1  0
 12 65  1  0
 13 66  1  0
 15 67  1  0
 15 68  1  0
 16 69  1  0
 16 70  1  0
 17 71  1  0
 18 72  1  0
 18 73  1  0
 19 74  1  0
 20 75  1  0
 21 76  1  0
 22 77  1  0
 23 78  1  0
 24 79  1  0
 24 80  1  0
 25 81  1  0
 26 82  1  0
 27 83  1  0
 30 84  1  0
 31 85  1  0
 32 86  1  0
 33 87  1  0
 33 88  1  0
 34 89  1  0
 36 90  1  0
 37 91  1  0
 37 92  1  0
 37 93  1  0
 38 94  1  0
 39 95  1  0
 39 96  1  0
 40 97  1  0
 41 98  1  0
 43 99  1  0
 43100  1  0
 43101  1  0
 44102  1  0
 45103  1  0
M  END
