
     RDKit          2D

 20 21  0  0  0  0  0  0  0  0999 V2000
   15.5063  -21.5213   -6.9884 O   0  0  0  0  0  0  0  0  0  0  0  0
   16.5345  -21.8248   -6.7729 C   0  0  0  0  0  0  0  0  0  0  0  0
   16.8406  -21.8569   -5.3048 O   0  0  0  0  0  0  0  0  0  0  0  0
   17.5959  -22.1886   -7.7684 C   0  0  0  0  0  0  0  0  0  0  0  0
   18.9236  -22.6151   -8.3208 C   0  0  0  0  0  0  0  0  0  0  0  0
   19.1156  -22.7349   -9.8036 C   0  0  0  0  0  0  0  0  0  0  0  0
   17.9798  -22.4284  -10.7341 C   0  0  0  0  0  0  0  0  0  0  0  0
   16.6519  -22.0019  -10.1818 C   0  0  0  0  0  0  0  0  0  0  0  0
   15.3241  -21.5755   -9.6295 C   0  0  0  0  0  0  0  0  0  0  0  0
   16.4599  -21.8821   -8.6990 C   0  0  0  0  0  0  0  0  0  0  0  0
   15.7792  -21.4930   -4.3092 H   0  0  0  0  0  0  0  0  0  0  0  0
   18.3630  -22.3688   -6.4922 H   0  0  0  0  0  0  0  0  0  0  0  0
   20.0595  -22.9216   -7.3903 H   0  0  0  0  0  0  0  0  0  0  0  0
   20.4434  -23.1614  -10.3559 H   0  0  0  0  0  0  0  0  0  0  0  0
   19.0411  -22.7922  -11.7297 H   0  0  0  0  0  0  0  0  0  0  0  0
   17.2125  -22.2482  -12.0104 H   0  0  0  0  0  0  0  0  0  0  0  0
   16.1069  -21.8941  -11.5751 H   0  0  0  0  0  0  0  0  0  0  0  0
   14.5569  -21.3953  -10.9058 H   0  0  0  0  0  0  0  0  0  0  0  0
   14.2627  -21.2116   -8.6339 H   0  0  0  0  0  0  0  0  0  0  0  0
   15.7241  -21.6266   -7.9315 H   0  0  0  0  0  0  0  0  0  0  0  0
  1  2  2  0
  2  3  1  0
  2  4  1  0
  4  5  1  0
  5  6  2  0
  6  7  1  0
  7  8  1  0
  8  9  1  0
  9 10  1  0
 10  4  1  0
 10  8  1  0
  3 11  1  0
  4 12  1  0
  5 13  1  0
  6 14  1  0
  7 15  1  0
  7 16  1  0
  8 17  1  0
  9 18  1  0
  9 19  1  0
 10 20  1  0
M  END
