
     RDKit          2D

 44 47  0  0  0  0  0  0  0  0999 V2000
   12.6134  -18.9505  -14.2194 C   0  0  0  0  0  0  0  0  0  0  0  0
   13.9463  -19.0556  -14.8995 C   0  0  0  0  0  0  0  0  0  0  0  0
   15.2791  -19.1607  -15.5797 C   0  0  0  0  0  0  0  0  0  0  0  0
   16.6119  -19.2658  -16.2597 C   0  0  0  0  0  0  0  0  0  0  0  0
   17.9447  -19.3710  -16.9398 C   0  0  0  0  0  0  0  0  0  0  0  0
   17.2717  -19.4914  -14.9317 C   0  0  0  0  0  0  0  0  0  0  0  0
   18.4982  -19.2965  -15.7730 C   0  0  0  0  0  0  0  0  0  0  0  0
   19.6974  -19.4242  -14.8809 C   0  0  0  0  0  0  0  0  0  0  0  0
   19.2120  -19.6979  -13.4882 C   0  0  0  0  0  0  0  0  0  0  0  0
   17.7129  -19.7395  -13.5197 C   0  0  0  0  0  0  0  0  0  0  0  0
   16.2800  -19.8638  -13.0938 C   0  0  0  0  0  0  0  0  0  0  0  0
   16.7211  -20.1118  -11.6818 O   0  0  0  0  0  0  0  0  0  0  0  0
   18.1541  -19.9875  -12.1076 C   0  0  0  0  0  0  0  0  0  0  0  0
   19.5870  -19.8632  -12.5335 C   0  0  0  0  0  0  0  0  0  0  0  0
   20.0281  -20.1108  -11.1213 C   0  0  0  0  0  0  0  0  0  0  0  0
   21.4610  -19.9865  -11.5472 C   0  0  0  0  0  0  0  0  0  0  0  0
   21.0199  -19.7390  -12.9592 C   0  0  0  0  0  0  0  0  0  0  0  0
   15.8389  -19.6157  -14.5059 O   0  0  0  0  0  0  0  0  0  0  0  0
   11.2806  -18.8454  -13.5394 H   0  0  0  0  0  0  0  0  0  0  0  0
   13.2219  -19.4629  -12.9477 H   0  0  0  0  0  0  0  0  0  0  0  0
   12.0050  -18.4381  -15.4911 H   0  0  0  0  0  0  0  0  0  0  0  0
   13.3958  -18.3286  -16.0906 H   0  0  0  0  0  0  0  0  0  0  0  0
   14.4967  -19.7826  -13.7085 H   0  0  0  0  0  0  0  0  0  0  0  0
   14.7289  -18.4330  -16.7704 H   0  0  0  0  0  0  0  0  0  0  0  0
   15.3914  -19.5224  -14.8782 H   0  0  0  0  0  0  0  0  0  0  0  0
   15.9521  -19.0403  -17.5878 H   0  0  0  0  0  0  0  0  0  0  0  0
   19.2006  -19.3866  -17.7600 H   0  0  0  0  0  0  0  0  0  0  0  0
   17.3945  -18.6437  -18.1307 H   0  0  0  0  0  0  0  0  0  0  0  0
   18.8012  -20.1021  -15.9489 H   0  0  0  0  0  0  0  0  0  0  0  0
   17.8150  -19.0738  -17.0898 H   0  0  0  0  0  0  0  0  0  0  0  0
   19.6449  -19.0852  -16.7167 H   0  0  0  0  0  0  0  0  0  0  0  0
   20.4671  -19.1658  -16.1422 H   0  0  0  0  0  0  0  0  0  0  0  0
   21.1242  -19.4647  -14.4199 H   0  0  0  0  0  0  0  0  0  0  0  0
   20.7110  -19.6468  -13.5085 H   0  0  0  0  0  0  0  0  0  0  0  0
   19.3977  -19.9638  -12.0238 H   0  0  0  0  0  0  0  0  0  0  0  0
   14.8471  -19.9880  -12.6680 H   0  0  0  0  0  0  0  0  0  0  0  0
   18.4172  -20.2489  -10.6542 H   0  0  0  0  0  0  0  0  0  0  0  0
   19.5057  -19.5930  -14.0067 H   0  0  0  0  0  0  0  0  0  0  0  0
   20.4691  -20.3583   -9.7091 H   0  0  0  0  0  0  0  0  0  0  0  0
   18.6596  -20.2643  -10.5265 H   0  0  0  0  0  0  0  0  0  0  0  0
   22.8939  -19.8622  -11.9729 H   0  0  0  0  0  0  0  0  0  0  0  0
   21.9021  -20.2340  -10.1350 H   0  0  0  0  0  0  0  0  0  0  0  0
   20.7567  -19.4782  -14.4128 H   0  0  0  0  0  0  0  0  0  0  0  0
   22.4527  -19.6147  -13.3851 H   0  0  0  0  0  0  0  0  0  0  0  0
  1  2  1  0
  2  3  1  0
  3  4  1  0
  4  5  1  0
  4  6  1  0
  6  7  1  0
  7  8  1  0
  8  9  1  0
  9 10  1  0
 10 11  1  0
 11 12  1  0
 12 13  1  0
 13 14  1  0
 14 15  1  0
 15 16  1  0
 16 17  1  0
 11 18  1  0
 10  6  1  0
 17 14  1  0
 18  6  1  0
 13 10  1  0
  1 19  1  0
  1 20  1  0
  1 21  1  0
  2 22  1  0
  2 23  1  0
  3 24  1  0
  3 25  1  0
  4 26  1  0
  5 27  1  0
  5 28  1  0
  5 29  1  0
  7 30  1  0
  7 31  1  0
  8 32  1  0
  8 33  1  0
  9 34  1  0
  9 35  1  0
 11 36  1  0
 13 37  1  0
 14 38  1  0
 15 39  1  0
 15 40  1  0
 16 41  1  0
 16 42  1  0
 17 43  1  0
 17 44  1  0
M  END
