
     RDKit          2D

 33 38  0  0  0  0  0  0  0  0999 V2000
   16.5791  -20.8980  -13.6352 C   0  0  0  0  0  0  0  0  0  0  0  0
   17.1146  -21.5139  -12.3767 C   0  0  0  0  0  0  0  0  0  0  0  0
   15.8280  -21.8717  -11.6937 C   0  0  0  0  0  0  0  0  0  0  0  0
   17.1387  -22.1798  -11.0328 C   0  0  0  0  0  0  0  0  0  0  0  0
   18.6198  -22.2672  -10.8119 C   0  0  0  0  0  0  0  0  0  0  0  0
   20.1009  -22.3546  -10.5910 C   0  0  0  0  0  0  0  0  0  0  0  0
   18.3831  -22.9283   -9.4865 C   0  0  0  0  0  0  0  0  0  0  0  0
   17.0904  -22.1809   -9.3445 C   0  0  0  0  0  0  0  0  0  0  0  0
   16.8538  -22.8420   -8.0190 C   0  0  0  0  0  0  0  0  0  0  0  0
   18.1465  -23.5894   -8.1610 Al  0  0  0  0  0  5  0  0  0  0  0  0
   18.8932  -24.5854   -7.3241 O   0  0  0  0  0  0  0  0  0  0  0  0
   15.6158  -22.5253   -7.2333 C   0  0  0  0  0  0  0  0  0  0  0  0
   14.3780  -22.2085   -6.4476 O   0  0  0  0  0  0  0  0  0  0  0  0
   14.6146  -21.5474   -7.7731 C   0  0  0  0  0  0  0  0  0  0  0  0
   13.6134  -20.5696   -8.3129 O   0  0  0  0  0  0  0  0  0  0  0  0
   15.8525  -21.8642   -8.5588 C   0  0  0  0  0  0  0  0  0  0  0  0
   16.0435  -20.2821  -14.8937 H   0  0  0  0  0  0  0  0  0  0  0  0
   17.9800  -20.6390  -14.1046 H   0  0  0  0  0  0  0  0  0  0  0  0
   15.2689  -21.0618  -13.3540 H   0  0  0  0  0  0  0  0  0  0  0  0
   18.5417  -21.2919  -12.7818 H   0  0  0  0  0  0  0  0  0  0  0  0
   14.8825  -22.4002  -10.6561 H   0  0  0  0  0  0  0  0  0  0  0  0
   14.8260  -21.4818  -12.5103 H   0  0  0  0  0  0  0  0  0  0  0  0
   16.7037  -22.4817  -10.4369 H   0  0  0  0  0  0  0  0  0  0  0  0
   19.0353  -21.6217  -12.1006 H   0  0  0  0  0  0  0  0  0  0  0  0
   21.5819  -22.4421  -10.3702 H   0  0  0  0  0  0  0  0  0  0  0  0
   20.3376  -21.6939  -11.9167 H   0  0  0  0  0  0  0  0  0  0  0  0
   20.0465  -23.0211   -9.2484 H   0  0  0  0  0  0  0  0  0  0  0  0
   19.6374  -23.7508   -9.4657 H   0  0  0  0  0  0  0  0  0  0  0  0
   16.6706  -21.2403  -10.4349 H   0  0  0  0  0  0  0  0  0  0  0  0
   19.4314  -24.0270   -8.7994 H   0  0  0  0  0  0  0  0  0  0  0  0
   17.4331  -23.9142   -6.8820 H   0  0  0  0  0  0  0  0  0  0  0  0
   18.3301  -25.0306   -6.0069 H   0  0  0  0  0  0  0  0  0  0  0  0
   13.9322  -19.7713   -9.5422 H   0  0  0  0  0  0  0  0  0  0  0  0
  1  2  1  0
  2  3  1  0
  3  4  1  0
  4  5  1  0
  5  6  1  0
  5  7  1  0
  7  8  1  0
  8  9  1  0
  9 10  1  0
 10 11  1  0
  9 12  1  0
 12 13  1  0
 13 14  1  0
 14 15  1  0
 14 16  1  0
  4  2  1  0
 10  7  1  0
 14 12  1  0
 16  8  1  0
 16  9  1  0
 16 12  1  0
  1 17  1  0
  1 18  1  0
  1 19  1  0
  2 20  1  0
  3 21  1  0
  3 22  1  0
  4 23  1  0
  5 24  1  0
  6 25  1  0
  6 26  1  0
  6 27  1  0
  7 28  1  0
  8 29  1  0
 10 30  1  0
 10 31  1  0
 11 32  1  0
 15 33  1  0
M  END
