
     RDKit          2D

112114  0  0  0  0  0  0  0  0999 V2000
   26.6475  -23.3136   -1.7283 C   0  0  0  0  0  0  0  0  0  0  0  0
   25.6068  -22.4252   -2.3429 C   0  0  0  0  0  0  0  0  0  0  0  0
   24.5660  -21.5368   -2.9574 C   0  0  0  0  0  0  0  0  0  0  0  0
   23.5253  -20.6484   -3.5720 C   0  0  0  0  0  0  0  0  0  0  0  0
   22.4846  -19.7600   -4.1865 C   0  0  0  0  0  0  0  0  0  0  0  0
   21.4438  -18.8717   -4.8010 C   0  0  0  0  0  0  0  0  0  0  0  0
   21.0923  -18.0233   -3.6149 O   0  0  0  0  0  0  0  0  0  0  0  0
   20.4065  -17.7958   -4.9295 C   0  0  0  0  0  0  0  0  0  0  0  0
   20.0364  -17.9620   -6.3735 C   0  0  0  0  0  0  0  0  0  0  0  0
   19.6663  -18.1282   -7.8176 C   0  0  0  0  0  0  0  0  0  0  0  0
   19.2961  -18.2943   -9.2617 C   0  0  0  0  0  0  0  0  0  0  0  0
   18.9260  -18.4605  -10.7059 C   0  0  0  0  0  0  0  0  0  0  0  0
   18.5558  -18.6266  -12.1499 C   0  0  0  0  0  0  0  0  0  0  0  0
   18.1857  -18.7927  -13.5940 C   0  0  0  0  0  0  0  0  0  0  0  0
   17.5689  -17.5037  -12.0262 C   0  0  0  0  0  0  0  0  0  0  0  0
   16.5821  -16.3809  -11.9024 C   0  0  0  0  0  0  0  0  0  0  0  0
   15.5952  -15.2580  -11.7786 C   0  0  0  0  0  0  0  0  0  0  0  0
   14.6083  -14.1352  -11.6549 C   0  0  0  0  0  0  0  0  0  0  0  0
   13.5545  -13.1368  -12.0326 C   0  0  0  0  0  0  0  0  0  0  0  0
   14.0727  -14.1036  -13.0556 C   0  0  0  0  0  0  0  0  0  0  0  0
   13.2589  -13.6859  -14.2445 C   0  0  0  0  0  0  0  0  0  0  0  0
   12.4452  -13.2682  -15.4333 C   0  0  0  0  0  0  0  0  0  0  0  0
   11.6315  -12.8504  -16.6222 C   0  0  0  0  0  0  0  0  0  0  0  0
   10.8177  -12.4326  -17.8109 C   0  0  0  0  0  0  0  0  0  0  0  0
   11.4867  -13.4887  -18.6399 O   0  0  0  0  0  0  0  0  0  0  0  0
   11.1164  -13.6550  -20.0839 C   0  0  0  0  0  0  0  0  0  0  0  0
   10.7462  -13.8213  -21.5280 S   0  0  0  0  0  4  0  0  0  0  0  0
   10.3759  -13.9875  -22.9721 C   0  0  0  0  0  0  0  0  0  0  0  0
   10.0057  -14.1538  -24.4162 O   0  0  0  0  0  0  0  0  0  0  0  0
   11.7311  -14.9459  -21.6510 N   0  0  0  0  0  0  0  0  0  0  0  0
   11.9291  -15.6283  -22.9721 C   0  0  0  0  0  0  0  0  0  0  0  0
   12.1271  -16.3107  -24.2931 N   0  0  0  0  0  2  0  0  0  0  0  0
   13.1607  -15.8008  -25.2532 C   0  0  0  0  0  0  0  0  0  0  0  0
   14.1942  -15.2909  -26.2133 N   0  0  0  0  0  2  0  0  0  0  0  0
   12.7853  -16.8766  -26.2287 Mg  0  0  0  0  0  2  0  0  0  0  0  0
   12.4099  -17.9523  -27.2044 N   0  0  0  0  0  0  0  0  0  0  0  0
   11.3187  -18.9243  -26.8660 C   0  0  0  0  0  0  0  0  0  0  0  0
   10.2275  -19.8963  -26.5277 C   0  0  0  0  0  0  0  0  0  0  0  0
   10.0040  -12.0150  -18.9997 C   0  0  0  0  0  0  0  0  0  0  0  0
    9.0102  -11.2614  -19.8332 C   0  0  0  0  0  0  0  0  0  0  0  0
    9.2031  -10.9031  -18.3895 C   0  0  0  0  0  0  0  0  0  0  0  0
   16.2118  -16.5473  -13.3464 C   0  0  0  0  0  0  0  0  0  0  0  0
   15.8414  -16.7136  -14.7904 C   0  0  0  0  0  0  0  0  0  0  0  0
   15.2286  -15.4210  -13.2240 O   0  0  0  0  0  0  0  0  0  0  0  0
   27.6883  -24.2019   -1.1138 H   0  0  0  0  0  0  0  0  0  0  0  0
   27.7236  -22.3862   -2.2100 H   0  0  0  0  0  0  0  0  0  0  0  0
   25.5715  -24.2410   -1.2466 H   0  0  0  0  0  0  0  0  0  0  0  0
   26.6794  -21.6754   -3.0757 H   0  0  0  0  0  0  0  0  0  0  0  0
   24.5341  -23.1750   -1.6100 H   0  0  0  0  0  0  0  0  0  0  0  0
   25.6082  -20.9357   -3.8533 H   0  0  0  0  0  0  0  0  0  0  0  0
   23.5239  -22.1379   -2.0615 H   0  0  0  0  0  0  0  0  0  0  0  0
   22.4846  -21.2442   -2.6709 H   0  0  0  0  0  0  0  0  0  0  0  0
   24.5660  -20.0526   -4.4730 H   0  0  0  0  0  0  0  0  0  0  0  0
   22.1537  -20.8346   -5.1794 H   0  0  0  0  0  0  0  0  0  0  0  0
   22.8155  -18.6855   -3.1936 H   0  0  0  0  0  0  0  0  0  0  0  0
   21.5508  -19.4633   -6.0097 H   0  0  0  0  0  0  0  0  0  0  0  0
   19.4977  -16.6623   -4.5564 H   0  0  0  0  0  0  0  0  0  0  0  0
   20.8780  -18.9825   -6.6428 H   0  0  0  0  0  0  0  0  0  0  0  0
   19.0486  -16.8399   -6.2495 H   0  0  0  0  0  0  0  0  0  0  0  0
   20.6545  -19.2497   -7.9419 H   0  0  0  0  0  0  0  0  0  0  0  0
   18.6780  -17.0065   -7.6933 H   0  0  0  0  0  0  0  0  0  0  0  0
   18.3091  -17.1716   -9.1379 H   0  0  0  0  0  0  0  0  0  0  0  0
   20.2832  -19.4170   -9.3855 H   0  0  0  0  0  0  0  0  0  0  0  0
   19.9138  -19.5824  -10.8299 H   0  0  0  0  0  0  0  0  0  0  0  0
   18.3736  -17.7909  -10.5291 H   0  0  0  0  0  0  0  0  0  0  0  0
   19.5427  -19.7494  -12.2736 H   0  0  0  0  0  0  0  0  0  0  0  0
   17.8155  -18.9589  -15.0381 H   0  0  0  0  0  0  0  0  0  0  0  0
   19.1741  -19.9142  -13.7183 H   0  0  0  0  0  0  0  0  0  0  0  0
   17.5798  -18.1474  -13.6251 H   0  0  0  0  0  0  0  0  0  0  0  0
   17.2811  -17.5202  -12.8636 H   0  0  0  0  0  0  0  0  0  0  0  0
   17.7147  -17.3256  -11.1708 H   0  0  0  0  0  0  0  0  0  0  0  0
   16.9524  -16.2146  -10.4584 H   0  0  0  0  0  0  0  0  0  0  0  0
   15.7554  -15.0619  -10.8277 H   0  0  0  0  0  0  0  0  0  0  0  0
   15.9133  -15.2415  -10.8474 H   0  0  0  0  0  0  0  0  0  0  0  0
   14.8012  -13.7769  -10.2112 H   0  0  0  0  0  0  0  0  0  0  0  0
   13.3813  -12.4317  -10.7200 H   0  0  0  0  0  0  0  0  0  0  0  0
   12.5253  -12.2855  -12.7153 H   0  0  0  0  0  0  0  0  0  0  0  0
   14.6840  -15.1273  -13.9659 H   0  0  0  0  0  0  0  0  0  0  0  0
   12.4964  -12.5863  -13.5668 H   0  0  0  0  0  0  0  0  0  0  0  0
   13.8232  -14.6837  -15.2119 H   0  0  0  0  0  0  0  0  0  0  0  0
   13.1174  -14.3213  -16.2634 H   0  0  0  0  0  0  0  0  0  0  0  0
   11.7731  -12.2150  -14.6031 H   0  0  0  0  0  0  0  0  0  0  0  0
   10.9618  -11.7950  -15.7929 H   0  0  0  0  0  0  0  0  0  0  0  0
   12.3012  -13.9058  -17.4513 H   0  0  0  0  0  0  0  0  0  0  0  0
   10.2529  -11.4354  -16.8432 H   0  0  0  0  0  0  0  0  0  0  0  0
   12.1379  -14.7521  -20.0296 H   0  0  0  0  0  0  0  0  0  0  0  0
   10.0950  -12.5579  -20.1384 H   0  0  0  0  0  0  0  0  0  0  0  0
    9.7613  -12.6965  -21.4051 H   0  0  0  0  0  0  0  0  0  0  0  0
    9.3906  -12.8633  -22.8489 H   0  0  0  0  0  0  0  0  0  0  0  0
   11.1631  -15.0966  -23.6047 H   0  0  0  0  0  0  0  0  0  0  0  0
    8.9649  -13.2654  -25.0306 H   0  0  0  0  0  0  0  0  0  0  0  0
   12.5952  -15.5121  -20.5636 H   0  0  0  0  0  0  0  0  0  0  0  0
   10.8714  -16.6774  -22.7963 H   0  0  0  0  0  0  0  0  0  0  0  0
   13.0190  -14.6552  -23.3114 H   0  0  0  0  0  0  0  0  0  0  0  0
   13.5361  -14.7250  -24.2776 H   0  0  0  0  0  0  0  0  0  0  0  0
   15.0298  -14.0986  -25.8523 H   0  0  0  0  0  0  0  0  0  0  0  0
   13.1259  -18.0561  -28.5184 H   0  0  0  0  0  0  0  0  0  0  0  0
   10.7562  -17.9481  -25.8758 H   0  0  0  0  0  0  0  0  0  0  0  0
   11.8813  -19.9006  -27.8562 H   0  0  0  0  0  0  0  0  0  0  0  0
    9.1363  -20.8683  -26.1894 H   0  0  0  0  0  0  0  0  0  0  0  0
   10.4421  -19.6289  -25.0674 H   0  0  0  0  0  0  0  0  0  0  0  0
   10.0129  -20.1637  -27.9880 H   0  0  0  0  0  0  0  0  0  0  0  0
   10.4064  -12.9020  -20.1404 H   0  0  0  0  0  0  0  0  0  0  0  0
    9.1833  -11.9666  -21.1459 H   0  0  0  0  0  0  0  0  0  0  0  0
    7.9563  -10.2630  -20.2109 H   0  0  0  0  0  0  0  0  0  0  0  0
    8.2163   -9.7803  -18.2658 H   0  0  0  0  0  0  0  0  0  0  0  0
    9.6241  -10.7962  -16.9538 H   0  0  0  0  0  0  0  0  0  0  0  0
   15.4267  -15.4362  -12.7145 H   0  0  0  0  0  0  0  0  0  0  0  0
   15.4711  -16.8799  -16.2345 H   0  0  0  0  0  0  0  0  0  0  0  0
   14.8205  -15.6160  -14.8449 H   0  0  0  0  0  0  0  0  0  0  0  0
   16.8246  -17.8398  -14.9128 H   0  0  0  0  0  0  0  0  0  0  0  0
   14.5035  -15.1341  -14.5054 H   0  0  0  0  0  0  0  0  0  0  0  0
  1  2  1  0
  2  3  1  0
  3  4  1  0
  4  5  1  0
  5  6  1  0
  6  7  1  0
  7  8  1  0
  8  9  1  0
  9 10  1  0
 10 11  1  0
 11 12  1  0
 12 13  1  0
 13 14  1  0
 13 15  1  0
 15 16  1  0
 16 17  1  0
 17 18  1  0
 18 19  1  0
 19 20  1  0
 20 21  1  0
 21 22  1  0
 22 23  1  0
 23 24  1  0
 24 25  1  0
 25 26  1  0
 26 27  1  0
 27 28  1  0
 28 29  1  0
 27 30  1  0
 30 31  1  0
 31 32  1  0
 32 33  1  0
 33 34  1  0
 33 35  1  0
 35 36  1  0
 36 37  1  0
 37 38  1  0
 24 39  1  0
 39 40  1  0
 40 41  1  0
 16 42  1  0
 42 43  1  0
 42 44  1  0
  8  6  1  0
 20 18  1  0
 41 39  1  0
  1 45  1  0
  1 46  1  0
  1 47  1  0
  2 48  1  0
  2 49  1  0
  3 50  1  0
  3 51  1  0
  4 52  1  0
  4 53  1  0
  5 54  1  0
  5 55  1  0
  6 56  1  0
  8 57  1  0
  9 58  1  0
  9 59  1  0
 10 60  1  0
 10 61  1  0
 11 62  1  0
 11 63  1  0
 12 64  1  0
 12 65  1  0
 13 66  1  0
 14 67  1  0
 14 68  1  0
 14 69  1  0
 15 70  1  0
 15 71  1  0
 16 72  1  0
 17 73  1  0
 17 74  1  0
 18 75  1  0
 19 76  1  0
 19 77  1  0
 20 78  1  0
 21 79  1  0
 21 80  1  0
 22 81  1  0
 22 82  1  0
 23 83  1  0
 23 84  1  0
 24 85  1  0
 26 86  1  0
 26 87  1  0
 27 88  1  0
 28 89  1  0
 28 90  1  0
 29 91  1  0
 30 92  1  0
 31 93  1  0
 31 94  1  0
 33 95  1  0
 34 96  1  0
 36 97  1  0
 37 98  1  0
 37 99  1  0
 38100  1  0
 38101  1  0
 38102  1  0
 39103  1  0
 40104  1  0
 40105  1  0
 41106  1  0
 41107  1  0
 42108  1  0
 43109  1  0
 43110  1  0
 43111  1  0
 44112  1  0
M  RAD  2  32   2  34   2
M  END
