
     RDKit          2D

 65 66  0  0  0  0  0  0  0  0999 V2000
   16.8747  -21.6368   -8.6953 C   0  0  0  0  0  0  0  0  0  0  0  0
   16.7431  -23.1300   -8.7491 C   0  0  0  0  0  0  0  0  0  0  0  0
   17.2808  -23.9712   -7.6296 C   0  0  0  0  0  0  0  0  0  0  0  0
   17.7434  -22.7325   -6.9213 C   0  0  0  0  0  0  0  0  0  0  0  0
   18.2060  -21.4939   -6.2128 C   0  0  0  0  0  0  0  0  0  0  0  0
   18.6580  -22.5375   -5.2348 C   0  0  0  0  0  0  0  0  0  0  0  0
   18.8948  -23.8855   -4.6207 C   0  0  0  0  0  0  0  0  0  0  0  0
   19.3598  -22.1295   -3.9735 C   0  0  0  0  0  0  0  0  0  0  0  0
   19.6096  -20.6778   -3.6902 C   0  0  0  0  0  0  0  0  0  0  0  0
   19.1577  -19.6342   -4.6683 C   0  0  0  0  0  0  0  0  0  0  0  0
   18.4558  -20.0423   -5.9295 C   0  0  0  0  0  0  0  0  0  0  0  0
   17.7564  -19.9330   -7.2520 C   0  0  0  0  0  0  0  0  0  0  0  0
   17.0570  -19.8237   -8.5745 C   0  0  0  0  0  0  0  0  0  0  0  0
   16.3575  -19.7144   -9.8969 O   0  0  0  0  0  0  0  0  0  0  0  0
   16.1207  -18.3666  -10.5110 C   0  0  0  0  0  0  0  0  0  0  0  0
   17.8185  -24.8123   -6.5101 C   0  0  0  0  0  0  0  0  0  0  0  0
   18.5247  -24.5056   -5.2227 O   0  0  0  0  0  0  0  0  0  0  0  0
   17.6870  -26.3055   -6.5639 C   0  0  0  0  0  0  0  0  0  0  0  0
   17.5554  -27.7988   -6.6176 C   0  0  0  0  0  0  0  0  0  0  0  0
   17.4238  -29.2920   -6.6714 C   0  0  0  0  0  0  0  0  0  0  0  0
   17.6114  -27.7497   -8.1158 O   0  0  0  0  0  0  0  0  0  0  0  0
   16.0738  -23.7822   -9.9225 C   0  0  0  0  0  0  0  0  0  0  0  0
   15.3646  -23.9341  -11.2355 C   0  0  0  0  0  0  0  0  0  0  0  0
   15.7266  -22.5681  -10.7322 C   0  0  0  0  0  0  0  0  0  0  0  0
   15.1889  -21.7271  -11.8517 C   0  0  0  0  0  0  0  0  0  0  0  0
   14.6511  -20.8860  -12.9712 C   0  0  0  0  0  0  0  0  0  0  0  0
   14.7827  -19.3928  -12.9175 O   0  0  0  0  0  0  0  0  0  0  0  0
   16.3973  -20.6510   -9.7202 H   0  0  0  0  0  0  0  0  0  0  0  0
   17.2304  -21.2902   -8.0718 H   0  0  0  0  0  0  0  0  0  0  0  0
   16.8182  -25.2098   -8.3380 H   0  0  0  0  0  0  0  0  0  0  0  0
   18.2831  -23.5738   -5.8027 H   0  0  0  0  0  0  0  0  0  0  0  0
   17.4290  -22.0857   -7.5929 H   0  0  0  0  0  0  0  0  0  0  0  0
   17.7097  -20.9970   -7.2044 H   0  0  0  0  0  0  0  0  0  0  0  0
   18.0857  -23.5552   -6.1765 H   0  0  0  0  0  0  0  0  0  0  0  0
   19.1317  -25.2333   -4.0066 H   0  0  0  0  0  0  0  0  0  0  0  0
   18.2562  -24.6968   -5.7088 H   0  0  0  0  0  0  0  0  0  0  0  0
   19.5913  -23.4026   -3.3830 H   0  0  0  0  0  0  0  0  0  0  0  0
   20.0592  -22.2387   -2.6511 H   0  0  0  0  0  0  0  0  0  0  0  0
   19.4397  -23.5895   -3.6388 H   0  0  0  0  0  0  0  0  0  0  0  0
   20.0723  -19.4392   -2.9818 H   0  0  0  0  0  0  0  0  0  0  0  0
   20.2223  -21.2912   -2.4662 H   0  0  0  0  0  0  0  0  0  0  0  0
   18.9208  -18.2862   -5.2823 H   0  0  0  0  0  0  0  0  0  0  0  0
   19.7772  -18.7580   -3.6202 H   0  0  0  0  0  0  0  0  0  0  0  0
   18.4627  -18.5527   -6.1056 H   0  0  0  0  0  0  0  0  0  0  0  0
   17.8854  -18.4396   -7.1968 H   0  0  0  0  0  0  0  0  0  0  0  0
   17.6274  -21.4264   -7.3072 H   0  0  0  0  0  0  0  0  0  0  0  0
   17.1823  -18.3300   -8.5173 H   0  0  0  0  0  0  0  0  0  0  0  0
   17.0179  -21.3196   -8.4700 H   0  0  0  0  0  0  0  0  0  0  0  0
   15.8839  -17.0187  -11.1250 H   0  0  0  0  0  0  0  0  0  0  0  0
   15.4477  -19.0184  -11.6823 H   0  0  0  0  0  0  0  0  0  0  0  0
   16.7937  -17.7147   -9.3396 H   0  0  0  0  0  0  0  0  0  0  0  0
   18.8435  -26.4415   -5.6184 H   0  0  0  0  0  0  0  0  0  0  0  0
   16.5304  -26.1696   -7.5093 H   0  0  0  0  0  0  0  0  0  0  0  0
   17.4994  -27.8479   -5.1195 H   0  0  0  0  0  0  0  0  0  0  0  0
   17.2922  -30.7853   -6.7253 H   0  0  0  0  0  0  0  0  0  0  0  0
   18.1217  -29.4012   -5.3482 H   0  0  0  0  0  0  0  0  0  0  0  0
   16.7150  -29.3657   -7.9914 H   0  0  0  0  0  0  0  0  0  0  0  0
   17.5350  -28.9123   -9.0605 H   0  0  0  0  0  0  0  0  0  0  0  0
   16.1885  -25.2228   -9.5203 H   0  0  0  0  0  0  0  0  0  0  0  0
   15.2330  -25.4273  -11.2893 H   0  0  0  0  0  0  0  0  0  0  0  0
   14.6755  -23.7470  -12.5547 H   0  0  0  0  0  0  0  0  0  0  0  0
   16.2165  -21.3753   -9.9661 H   0  0  0  0  0  0  0  0  0  0  0  0
   14.6673  -22.8541  -12.6929 H   0  0  0  0  0  0  0  0  0  0  0  0
   15.6484  -20.4883  -11.1417 H   0  0  0  0  0  0  0  0  0  0  0  0
   13.9818  -21.5381  -14.1446 H   0  0  0  0  0  0  0  0  0  0  0  0
  1  2  2  3
  2  3  1  0
  3  4  1  0
  4  5  1  0
  5  6  1  0
  6  7  1  0
  6  8  1  0
  8  9  1  0
  9 10  1  0
 10 11  1  0
 11 12  1  0
 12 13  1  0
 13 14  1  0
 14 15  1  0
  3 16  1  0
 16 17  2  0
 16 18  1  0
 18 19  1  0
 19 20  1  0
 19 21  1  0
  2 22  1  0
 22 23  1  0
 23 24  1  0
 24 25  1  0
 25 26  1  0
 26 27  2  0
 11  5  1  0
 24 22  1  0
  1 28  1  0
  1 29  1  0
  3 30  1  0
  4 31  1  0
  4 32  1  0
  5 33  1  0
  6 34  1  0
  7 35  1  0
  7 36  1  0
  7 37  1  0
  8 38  1  0
  8 39  1  0
  9 40  1  0
  9 41  1  0
 10 42  1  0
 10 43  1  0
 11 44  1  0
 12 45  1  0
 12 46  1  0
 13 47  1  0
 13 48  1  0
 15 49  1  0
 15 50  1  0
 15 51  1  0
 18 52  1  0
 18 53  1  0
 19 54  1  0
 20 55  1  0
 20 56  1  0
 20 57  1  0
 21 58  1  0
 22 59  1  0
 23 60  1  0
 23 61  1  0
 24 62  1  0
 25 63  1  0
 25 64  1  0
 26 65  1  0
M  END
