
     RDKit          2D

 65 69  0  0  0  0  0  0  0  0999 V2000
   -1.8261   23.0506    8.2887 C   0  0  0  0  0  0  0  0  0  0  0  0
   -1.5056   24.1014    7.2673 C   0  0  0  0  0  0  0  0  0  0  0  0
   -2.9558   24.2028    7.6371 O   0  0  0  0  0  0  0  0  0  0  0  0
   -4.2637   24.9082    7.4331 C   0  0  0  0  0  0  0  0  0  0  0  0
   -5.0142   25.9937    6.7200 O   0  0  0  0  0  0  0  0  0  0  0  0
   -4.9690   27.1146    5.7242 C   0  0  0  0  0  0  0  0  0  0  0  0
   -5.1317   28.2616    4.7714 C   0  0  0  0  0  0  0  0  0  0  0  0
   -4.4110   29.1300    3.7832 C   0  0  0  0  0  0  0  0  0  0  0  0
   -4.2687   30.2308    2.7743 O   0  0  0  0  0  0  0  0  0  0  0  0
   -3.0821   29.3880    3.1370 C   0  0  0  0  0  0  0  0  0  0  0  0
   -1.6526   28.9371    3.0798 C   0  0  0  0  0  0  0  0  0  0  0  0
   -0.6685   27.9495    3.6333 C   0  0  0  0  0  0  0  0  0  0  0  0
   -0.5058   26.8025    4.5861 N   0  0  0  0  0  0  0  0  0  0  0  0
   -1.2265   25.9342    5.5743 C   0  0  0  0  0  0  0  0  0  0  0  0
   -2.5554   25.6762    6.2204 C   0  0  0  0  0  0  0  0  0  0  0  0
   -2.6008   25.9962    5.9546 C   0  0  0  0  0  0  0  0  0  0  0  0
   -2.5531   25.6599    6.2340 C   0  0  0  0  0  0  0  0  0  0  0  0
   -2.6008   25.9962    5.9546 C   0  0  0  0  0  0  0  0  0  0  0  0
   -3.9848   26.1270    6.2777 C   0  0  0  0  0  0  0  0  0  0  0  0
   -5.3137   25.8690    6.9238 O   0  0  0  0  0  0  0  0  0  0  0  0
   -6.5003   26.7119    6.5610 C   0  0  0  0  0  0  0  0  0  0  0  0
   -5.5316   27.4040    5.6486 O   0  0  0  0  0  0  0  0  0  0  0  0
   -7.4845   27.6995    6.0076 C   0  0  0  0  0  0  0  0  0  0  0  0
   -8.8133   27.4415    6.6537 O   0  0  0  0  0  0  0  0  0  0  0  0
   -8.6506   26.2945    7.6066 C   0  0  0  0  0  0  0  0  0  0  0  0
   -9.7281   25.7024    8.4658 O   0  0  0  0  0  0  0  0  0  0  0  0
   -7.2211   25.8436    7.5493 C   0  0  0  0  0  0  0  0  0  0  0  0
    0.0807   25.6374    5.4208 C   0  0  0  0  0  0  0  0  0  0  0  0
    1.5393   25.3738    5.1903 N   0  0  0  0  0  0  0  0  0  0  0  0
   -0.3737   24.6362    6.4411 C   0  0  0  0  0  0  0  0  0  0  0  0
    0.1264   23.4976    7.2799 C   0  0  0  0  0  0  0  0  0  0  0  0
   -2.1466   21.9999    9.3101 H   0  0  0  0  0  0  0  0  0  0  0  0
   -0.4021   22.5806    8.2520 H   0  0  0  0  0  0  0  0  0  0  0  0
   -3.2786   23.3891    8.4496 H   0  0  0  0  0  0  0  0  0  0  0  0
   -0.6230   23.0643    7.8962 H   0  0  0  0  0  0  0  0  0  0  0  0
   -5.6447   24.7598    7.9997 H   0  0  0  0  0  0  0  0  0  0  0  0
   -4.6225   23.8705    8.4551 H   0  0  0  0  0  0  0  0  0  0  0  0
   -6.4042   27.1358    6.1595 H   0  0  0  0  0  0  0  0  0  0  0  0
   -6.2398   29.1697    4.3267 H   0  0  0  0  0  0  0  0  0  0  0  0
   -6.5241   28.1424    5.3161 H   0  0  0  0  0  0  0  0  0  0  0  0
   -5.7379   29.8077    3.6094 H   0  0  0  0  0  0  0  0  0  0  0  0
   -2.6653   30.4042    2.1154 H   0  0  0  0  0  0  0  0  0  0  0  0
   -0.4072   29.3300    2.3419 H   0  0  0  0  0  0  0  0  0  0  0  0
   -1.6374   30.0632    2.0890 H   0  0  0  0  0  0  0  0  0  0  0  0
    0.7610   27.4986    3.5760 H   0  0  0  0  0  0  0  0  0  0  0  0
    0.2015   28.7192    2.6842 H   0  0  0  0  0  0  0  0  0  0  0  0
   -1.0637   24.7872    6.5271 H   0  0  0  0  0  0  0  0  0  0  0  0
    0.1566   25.3575    5.6419 H   0  0  0  0  0  0  0  0  0  0  0  0
   -4.2302   24.0954    8.1341 H   0  0  0  0  0  0  0  0  0  0  0  0
   -4.9001   25.3690    7.2308 H   0  0  0  0  0  0  0  0  0  0  0  0
   -1.5868   22.9650    8.2881 H   0  0  0  0  0  0  0  0  0  0  0  0
   -3.3678   23.4278    8.4459 H   0  0  0  0  0  0  0  0  0  0  0  0
   -0.1562   25.1672    5.9074 H   0  0  0  0  0  0  0  0  0  0  0  0
   -0.3938   23.8271    7.1559 H   0  0  0  0  0  0  0  0  0  0  0  0
   -4.9690   27.1146    5.7242 H   0  0  0  0  0  0  0  0  0  0  0  0
   -5.8200   28.5555    4.7316 H   0  0  0  0  0  0  0  0  0  0  0  0
   -6.5544   28.4233    5.0796 H   0  0  0  0  0  0  0  0  0  0  0  0
   -8.2229   28.7885    5.2875 H   0  0  0  0  0  0  0  0  0  0  0  0
   -7.6621   24.8371    8.5702 H   0  0  0  0  0  0  0  0  0  0  0  0
   -5.9649   25.0723    7.8275 H   0  0  0  0  0  0  0  0  0  0  0  0
    2.2294   24.2713    5.9375 H   0  0  0  0  0  0  0  0  0  0  0  0
    1.0854   24.4263    6.1635 H   0  0  0  0  0  0  0  0  0  0  0  0
    0.6265   22.3591    8.1187 H   0  0  0  0  0  0  0  0  0  0  0  0
    1.5021   23.6830    6.7114 H   0  0  0  0  0  0  0  0  0  0  0  0
   -0.9786   22.9164    8.1112 H   0  0  0  0  0  0  0  0  0  0  0  0
  1  2  1  0
  2  3  1  0
  3  4  1  0
  4  5  1  0
  5  6  1  0
  6  7  1  0
  7  8  1  0
  8  9  1  0
  9 10  1  0
 10 11  1  0
 11 12  1  0
 12 13  1  0
 13 14  1  0
 14 15  1  0
 15 16  1  0
 16 17  1  0
 17 18  1  0
 15 19  1  0
 19 20  1  0
 20 21  1  0
 21 22  1  0
 21 23  1  0
 23 24  1  0
 24 25  1  0
 25 26  2  0
 25 27  1  0
 13 28  1  0
 28 29  2  3
 28 30  1  0
 30 31  1  0
 30  2  1  0
 19  6  1  0
 27 21  1  0
 10  8  1  0
 18 15  1  0
  1 32  1  0
  1 33  1  0
  1 34  1  0
  2 35  1  0
  4 36  1  0
  4 37  1  0
  6 38  1  0
  7 39  1  0
  7 40  1  0
  8 41  1  0
 10 42  1  0
 11 43  1  0
 11 44  1  0
 12 45  1  0
 12 46  1  0
 14 47  1  0
 14 48  1  0
 16 49  1  0
 16 50  1  0
 17 51  1  0
 17 52  1  0
 18 53  1  0
 18 54  1  0
 19 55  1  0
 22 56  1  0
 23 57  1  0
 23 58  1  0
 27 59  1  0
 27 60  1  0
 29 61  1  0
 30 62  1  0
 31 63  1  0
 31 64  1  0
 31 65  1  0
M  END
