
     RDKit          2D

 43 48  0  0  0  0  0  0  0  0999 V2000
    0.5482   26.5887    0.1719 C   0  0  0  0  0  0  0  0  0  0  0  0
    0.4204   26.1097    1.5876 C   0  0  0  0  0  0  0  0  0  0  0  0
   -0.9171   26.6904    1.9395 C   0  0  0  0  0  0  0  0  0  0  0  0
   -0.1564   25.8901    2.9547 C   0  0  0  0  0  0  0  0  0  0  0  0
   -1.1128   25.9565    4.1084 O   0  0  0  0  0  0  0  0  0  0  0  0
    0.9364   25.0667    3.5694 C   0  0  0  0  0  0  0  0  0  0  0  0
    1.6970   24.2663    4.5846 C   0  0  0  0  0  0  0  0  0  0  0  0
    2.9176   23.9220    3.7836 C   0  0  0  0  0  0  0  0  0  0  0  0
    0.3596   24.8471    4.9365 C   0  0  0  0  0  0  0  0  0  0  0  0
   -0.2173   24.6275    6.3036 C   0  0  0  0  0  0  0  0  0  0  0  0
   -0.9780   25.4279    5.2883 C   0  0  0  0  0  0  0  0  0  0  0  0
   -2.1985   25.7722    6.0893 O   0  0  0  0  0  0  0  0  0  0  0  0
   -3.2913   26.5956    5.4747 C   0  0  0  0  0  0  0  0  0  0  0  0
   -3.4504   26.6379    3.9838 O   0  0  0  0  0  0  0  0  0  0  0  0
   -4.3841   27.4190    4.8601 C   0  0  0  0  0  0  0  0  0  0  0  0
   -4.2250   27.3768    6.3511 C   0  0  0  0  0  0  0  0  0  0  0  0
   -5.1588   28.1580    7.2273 C   0  0  0  0  0  0  0  0  0  0  0  0
   -4.0660   27.3346    7.8420 C   0  0  0  0  0  0  0  0  0  0  0  0
   -4.3166   27.6117    9.2947 C   0  0  0  0  0  0  0  0  0  0  0  0
   -4.5674   27.8889   10.7473 N   0  0  0  0  0  0  0  0  0  0  0  0
   -3.6934   27.2610   11.7924 Cl  0  0  0  0  0  0  0  0  0  0  0  0
    0.6759   27.0678   -1.2438 H   0  0  0  0  0  0  0  0  0  0  0  0
   -0.6316   27.2422    0.1122 H   0  0  0  0  0  0  0  0  0  0  0  0
    1.8846   25.9160    0.0648 H   0  0  0  0  0  0  0  0  0  0  0  0
    1.7476   25.4113    1.5541 H   0  0  0  0  0  0  0  0  0  0  0  0
   -2.1376   27.0348    2.7405 H   0  0  0  0  0  0  0  0  0  0  0  0
   -1.3604   27.3501    0.8481 H   0  0  0  0  0  0  0  0  0  0  0  0
   -2.2809   26.7673    3.6308 H   0  0  0  0  0  0  0  0  0  0  0  0
    1.7111   25.0129    2.6349 H   0  0  0  0  0  0  0  0  0  0  0  0
    2.0338   23.5856    5.8782 H   0  0  0  0  0  0  0  0  0  0  0  0
    4.1382   23.5776    2.9825 H   0  0  0  0  0  0  0  0  0  0  0  0
    3.4751   23.1705    4.9560 H   0  0  0  0  0  0  0  0  0  0  0  0
    2.5900   24.4921    2.7619 H   0  0  0  0  0  0  0  0  0  0  0  0
    0.8755   23.8041    6.9182 H   0  0  0  0  0  0  0  0  0  0  0  0
   -1.1736   24.6939    7.4573 H   0  0  0  0  0  0  0  0  0  0  0  0
   -1.3186   25.8393    4.6966 H   0  0  0  0  0  0  0  0  0  0  0  0
   -5.4769   28.2425    4.2454 H   0  0  0  0  0  0  0  0  0  0  0  0
   -6.0327   28.7858    6.1824 H   0  0  0  0  0  0  0  0  0  0  0  0
   -5.9060   28.8067    8.3546 H   0  0  0  0  0  0  0  0  0  0  0  0
   -2.8861   26.4149    7.9521 H   0  0  0  0  0  0  0  0  0  0  0  0
   -3.1637   26.7256    9.6627 H   0  0  0  0  0  0  0  0  0  0  0  0
   -5.4916   28.5250    9.1065 H   0  0  0  0  0  0  0  0  0  0  0  0
   -5.6919   28.7939   11.1551 H   0  0  0  0  0  0  0  0  0  0  0  0
  1  2  1  0
  2  3  1  0
  3  4  1  0
  4  5  1  0
  4  6  1  0
  6  7  1  0
  7  8  1  0
  7  9  1  0
  9 10  1  0
 10 11  1  0
 11 12  1  0
 12 13  1  0
 13 14  1  0
 14 15  1  0
 15 16  1  0
 16 17  1  0
 17 18  1  0
 18 19  1  0
 19 20  1  0
 20 21  1  0
  4  2  1  0
  9  6  1  0
 15 13  1  0
 18 16  1  0
 11  9  1  0
 16 13  1  0
  1 22  1  0
  1 23  1  0
  1 24  1  0
  2 25  1  0
  3 26  1  0
  3 27  1  0
  5 28  1  0
  6 29  1  0
  7 30  1  0
  8 31  1  0
  8 32  1  0
  8 33  1  0
 10 34  1  0
 10 35  1  0
 11 36  1  0
 15 37  1  0
 17 38  1  0
 17 39  1  0
 18 40  1  0
 19 41  1  0
 19 42  1  0
 20 43  1  0
M  END
