
     RDKit          2D

 29 30  0  0  0  0  0  0  0  0999 V2000
   15.2884  -26.4336   -8.8326 C   0  0  0  0  0  0  0  0  0  0  0  0
   15.5014  -25.0571   -8.2760 C   0  0  0  0  0  0  0  0  0  0  0  0
   16.2915  -24.0473   -9.0543 C   0  0  0  0  0  0  0  0  0  0  0  0
   16.0815  -23.0410   -7.9621 N   0  0  0  0  0  0  0  0  0  0  0  0
   15.2949  -23.4135   -6.7403 C   0  0  0  0  0  0  0  0  0  0  0  0
   17.0817  -23.0375   -9.8328 C   0  0  0  0  0  0  0  0  0  0  0  0
   17.8719  -22.0277  -10.6112 C   0  0  0  0  0  0  0  0  0  0  0  0
   16.8709  -22.0309   -8.7408 C   0  0  0  0  0  0  0  0  0  0  0  0
   17.6120  -20.8614   -9.3180 C   0  0  0  0  0  0  0  0  0  0  0  0
   18.0815  -19.4407   -9.2126 C   0  0  0  0  0  0  0  0  0  0  0  0
   17.4124  -19.3188   -7.8756 C   0  0  0  0  0  0  0  0  0  0  0  0
   16.9429  -20.7396   -7.9811 C   0  0  0  0  0  0  0  0  0  0  0  0
   14.4983  -27.4435   -8.0543 H   0  0  0  0  0  0  0  0  0  0  0  0
   15.8657  -26.8004  -10.1678 H   0  0  0  0  0  0  0  0  0  0  0  0
   15.0323  -24.9143   -7.2986 H   0  0  0  0  0  0  0  0  0  0  0  0
   16.5016  -25.0537  -10.1467 H   0  0  0  0  0  0  0  0  0  0  0  0
   15.0849  -22.4071   -5.6480 H   0  0  0  0  0  0  0  0  0  0  0  0
   14.8266  -24.3785   -6.5280 H   0  0  0  0  0  0  0  0  0  0  0  0
   17.2925  -24.0441  -10.9247 H   0  0  0  0  0  0  0  0  0  0  0  0
   18.6620  -21.0178  -11.3895 H   0  0  0  0  0  0  0  0  0  0  0  0
   18.0813  -23.0338  -11.7039 H   0  0  0  0  0  0  0  0  0  0  0  0
   17.8640  -21.2268  -10.0392 H   0  0  0  0  0  0  0  0  0  0  0  0
   16.4419  -22.3036   -8.1268 H   0  0  0  0  0  0  0  0  0  0  0  0
   18.2729  -21.0081  -10.6566 H   0  0  0  0  0  0  0  0  0  0  0  0
   18.5510  -18.0200   -9.1072 H   0  0  0  0  0  0  0  0  0  0  0  0
   18.7506  -19.5626  -10.5496 H   0  0  0  0  0  0  0  0  0  0  0  0
   16.7433  -19.1970   -6.5387 H   0  0  0  0  0  0  0  0  0  0  0  0
   17.8819  -17.8981   -7.7702 H   0  0  0  0  0  0  0  0  0  0  0  0
   16.1751  -20.9895   -6.7169 H   0  0  0  0  0  0  0  0  0  0  0  0
  1  2  2  3
  2  3  1  0
  3  4  1  0
  4  5  2  3
  3  6  1  0
  6  7  1  0
  6  8  1  0
  8  9  1  0
  9 10  1  0
 10 11  1  0
 11 12  1  0
 12  8  1  0
 12  9  1  0
  1 13  1  0
  1 14  1  0
  2 15  1  0
  3 16  1  0
  5 17  1  0
  5 18  1  0
  6 19  1  0
  7 20  1  0
  7 21  1  0
  7 22  1  0
  8 23  1  0
  9 24  1  0
 10 25  1  0
 10 26  1  0
 11 27  1  0
 11 28  1  0
 12 29  1  0
M  END
