
     RDKit          2D

 96105  0  0  0  0  0  0  0  0999 V2000
  -10.8989   28.1734    5.7599 C   0  0  0  0  0  0  0  0  0  0  0  0
   -9.6110   28.2399    6.5258 C   0  0  0  0  0  0  0  0  0  0  0  0
   -8.3779   27.8623    5.7598 C   0  0  0  0  0  0  0  0  0  0  0  0
   -6.9556   27.8267    6.2352 C   0  0  0  0  0  0  0  0  0  0  0  0
   -5.4822   27.5974    6.0739 C   0  0  0  0  0  0  0  0  0  0  0  0
   -6.1909   27.3054    4.7846 C   0  0  0  0  0  0  0  0  0  0  0  0
   -6.1496   26.8773    3.3476 C   0  0  0  0  0  0  0  0  0  0  0  0
   -5.3693   26.4279    2.1479 Al  0  0  0  0  0  3  0  0  0  0  0  0
   -4.0592   26.0776    1.5070 O   0  0  0  0  0  0  0  0  0  0  0  0
   -2.5702   25.9203    1.5966 C   0  0  0  0  0  0  0  0  0  0  0  0
   -1.3013   25.9980    2.3928 C   0  0  0  0  0  0  0  0  0  0  0  0
   -0.5925   26.2900    3.6821 C   0  0  0  0  0  0  0  0  0  0  0  0
   -2.0726   26.5671    4.0028 O   0  0  0  0  0  0  0  0  0  0  0  0
   -2.3617   26.1844    2.5815 O   0  0  0  0  0  0  0  0  0  0  0  0
   -1.5328   25.7384    1.4136 C   0  0  0  0  0  0  0  0  0  0  0  0
   -0.0715   25.4903    1.1832 C   0  0  0  0  0  0  0  0  0  0  0  0
   -0.4214   25.9417    2.5702 C   0  0  0  0  0  0  0  0  0  0  0  0
    0.1465   26.2687    3.9194 C   0  0  0  0  0  0  0  0  0  0  0  0
    1.4154   26.3465    4.7156 N   0  0  0  0  0  0  0  0  0  0  0  0
    2.9006   26.1452    4.6545 C   0  0  0  0  0  0  0  0  0  0  0  0
    3.4685   26.4723    6.0038 C   0  0  0  0  0  0  0  0  0  0  0  0
    4.9537   26.2710    5.9427 C   0  0  0  0  0  0  0  0  0  0  0  0
    5.3036   25.8196    4.5557 O   0  0  0  0  0  0  0  0  0  0  0  0
    4.0347   25.7419    3.7596 C   0  0  0  0  0  0  0  0  0  0  0  0
    4.3847   25.2905    2.3726 N   0  0  0  0  0  0  0  0  0  0  0  0
    2.8999   25.4252    2.2079 N   0  0  0  0  0  0  0  0  0  0  0  0
    3.0190   24.9895    0.7775 C   0  0  0  0  0  0  0  0  0  0  0  0
    3.1381   24.5538   -0.6529 C   0  0  0  0  0  0  0  0  0  0  0  0
    4.6230   24.4191   -0.4882 O   0  0  0  0  0  0  0  0  0  0  0  0
    4.5039   24.8548    0.9422 C   0  0  0  0  0  0  0  0  0  0  0  0
    1.0627   25.0869    0.2883 C   0  0  0  0  0  0  0  0  0  0  0  0
    1.3193   27.1566    7.4277 C   0  0  0  0  0  0  0  0  0  0  0  0
   -0.1451   27.2452    7.1150 C   0  0  0  0  0  0  0  0  0  0  0  0
    0.6351   26.7959    5.9152 C   0  0  0  0  0  0  0  0  0  0  0  0
   -0.6337   26.7181    5.1192 C   0  0  0  0  0  0  0  0  0  0  0  0
   -1.4140   27.1675    6.3188 C   0  0  0  0  0  0  0  0  0  0  0  0
   -2.7242   27.5178    6.9597 C   0  0  0  0  0  0  0  0  0  0  0  0
   -1.6101   27.6724    7.9521 O   0  0  0  0  0  0  0  0  0  0  0  0
   -3.2722   27.9738    8.2794 C   0  0  0  0  0  0  0  0  0  0  0  0
   -3.8203   28.4299    9.5992 C   0  0  0  0  0  0  0  0  0  0  0  0
   -4.2132   27.6751    6.8701 C   0  0  0  0  0  0  0  0  0  0  0  0
   -6.4153   28.1600    7.5942 C   0  0  0  0  0  0  0  0  0  0  0  0
   -7.1637   28.6112    8.8134 C   0  0  0  0  0  0  0  0  0  0  0  0
   -8.6373   28.8405    8.9747 N   0  0  0  0  0  0  0  0  0  0  0  0
   -9.7264   28.6752    7.9565 O   0  0  0  0  0  0  0  0  0  0  0  0
  -12.1910   28.5308    6.4327 H   0  0  0  0  0  0  0  0  0  0  0  0
  -10.8948   27.7494    4.3211 H   0  0  0  0  0  0  0  0  0  0  0  0
   -8.1859   27.5017    4.6154 H   0  0  0  0  0  0  0  0  0  0  0  0
   -9.4670   27.6970    4.7416 H   0  0  0  0  0  0  0  0  0  0  0  0
   -6.9993   27.5540    5.2906 H   0  0  0  0  0  0  0  0  0  0  0  0
   -5.6012   28.0331    7.5043 H   0  0  0  0  0  0  0  0  0  0  0  0
   -6.9269   27.3061    4.4787 H   0  0  0  0  0  0  0  0  0  0  0  0
   -7.4199   27.6843    5.5567 H   0  0  0  0  0  0  0  0  0  0  0  0
   -7.0752   26.6506    2.1892 H   0  0  0  0  0  0  0  0  0  0  0  0
   -7.6348   27.0786    3.4086 H   0  0  0  0  0  0  0  0  0  0  0  0
   -6.3931   26.2365    1.0684 H   0  0  0  0  0  0  0  0  0  0  0  0
   -2.1451   25.4661    0.2317 H   0  0  0  0  0  0  0  0  0  0  0  0
   -3.2095   25.6103    0.2755 H   0  0  0  0  0  0  0  0  0  0  0  0
    0.0758   25.6802    1.8901 H   0  0  0  0  0  0  0  0  0  0  0  0
   -0.6578   25.5430    1.1165 H   0  0  0  0  0  0  0  0  0  0  0  0
    0.8565   26.0273    3.3967 H   0  0  0  0  0  0  0  0  0  0  0  0
   -1.4338   25.3046   -0.0189 H   0  0  0  0  0  0  0  0  0  0  0  0
   -2.8737   25.7063    0.7422 H   0  0  0  0  0  0  0  0  0  0  0  0
   -0.9765   25.2566    0.0099 H   0  0  0  0  0  0  0  0  0  0  0  0
   -1.7556   26.2816    3.1656 H   0  0  0  0  0  0  0  0  0  0  0  0
   -1.6903   25.8639    1.7741 H   0  0  0  0  0  0  0  0  0  0  0  0
    0.5922   26.6222    5.3074 H   0  0  0  0  0  0  0  0  0  0  0  0
    2.1203   26.5946    5.8542 H   0  0  0  0  0  0  0  0  0  0  0  0
    2.6883   26.9217    7.2035 H   0  0  0  0  0  0  0  0  0  0  0  0
    4.9124   26.6991    7.3798 H   0  0  0  0  0  0  0  0  0  0  0  0
    6.4303   26.1593    6.1821 H   0  0  0  0  0  0  0  0  0  0  0  0
    5.4118   25.4240    3.2569 H   0  0  0  0  0  0  0  0  0  0  0  0
    1.7657   25.8286    3.1028 H   0  0  0  0  0  0  0  0  0  0  0  0
    3.2573   24.1181   -2.0833 H   0  0  0  0  0  0  0  0  0  0  0  0
    1.6789   24.6344   -0.9907 H   0  0  0  0  0  0  0  0  0  0  0  0
    5.9887   24.7200    1.1069 H   0  0  0  0  0  0  0  0  0  0  0  0
   -0.2062   25.0092   -0.5079 H   0  0  0  0  0  0  0  0  0  0  0  0
    1.2335   24.6468   -1.1355 H   0  0  0  0  0  0  0  0  0  0  0  0
    0.9700   27.6080    8.8148 H   0  0  0  0  0  0  0  0  0  0  0  0
    2.6019   27.2263    8.2022 H   0  0  0  0  0  0  0  0  0  0  0  0
    0.0212   27.6472    8.5505 H   0  0  0  0  0  0  0  0  0  0  0  0
    1.9040   26.8736    6.7114 H   0  0  0  0  0  0  0  0  0  0  0  0
   -1.0937   27.5447    7.7348 H   0  0  0  0  0  0  0  0  0  0  0  0
   -1.7291   28.1081    9.3825 H   0  0  0  0  0  0  0  0  0  0  0  0
   -1.9641   28.0292    9.0114 H   0  0  0  0  0  0  0  0  0  0  0  0
   -4.7140   28.0297    7.8692 H   0  0  0  0  0  0  0  0  0  0  0  0
   -4.3684   28.8859   10.9189 H   0  0  0  0  0  0  0  0  0  0  0  0
   -2.4340   28.4386   10.1719 H   0  0  0  0  0  0  0  0  0  0  0  0
   -5.2980   28.5318    9.3628 H   0  0  0  0  0  0  0  0  0  0  0  0
   -5.3804   28.0708    7.7251 H   0  0  0  0  0  0  0  0  0  0  0  0
   -4.0987   28.0844    8.3086 H   0  0  0  0  0  0  0  0  0  0  0  0
   -5.3262   28.3253    8.6124 H   0  0  0  0  0  0  0  0  0  0  0  0
   -5.1822   27.7824    6.8281 H   0  0  0  0  0  0  0  0  0  0  0  0
   -7.2791   29.0466   10.2442 H   0  0  0  0  0  0  0  0  0  0  0  0
   -5.8910   28.6867    9.6036 H   0  0  0  0  0  0  0  0  0  0  0  0
   -9.0803   29.2952   10.3337 H   0  0  0  0  0  0  0  0  0  0  0  0
  1  2  2  3
  2  3  1  0
  3  4  1  0
  4  5  1  0
  5  6  1  0
  6  7  1  0
  7  8  1  0
  8  9  1  0
  9 10  1  0
 10 11  1  0
 11 12  1  0
 12 13  1  0
 13 14  1  0
 14 15  1  0
 15 16  1  0
 16 17  1  0
 17 18  1  0
 18 19  1  0
 19 20  1  0
 20 21  1  0
 21 22  1  0
 22 23  1  0
 23 24  1  0
 24 25  1  0
 25 26  1  0
 26 27  1  0
 27 28  1  0
 28 29  1  0
 29 30  1  0
 27 31  1  0
 21 32  1  0
 32 33  1  0
 33 34  1  0
 34 35  1  0
 35 36  1  0
 36 37  1  0
 37 38  1  0
 37 39  1  0
 39 40  1  0
 37 41  1  0
  4 42  1  0
 42 43  1  0
 43 44  1  0
 44 45  1  0
 45  2  1  0
 41  5  1  0
 35 12  1  0
 31 16  1  0
 36 33  1  0
 35 18  1  0
 34 19  1  0
 24 20  1  0
 30 25  1  0
 30 27  1  0
  1 46  1  0
  1 47  1  0
  3 48  1  0
  3 49  1  0
  4 50  1  0
  5 51  1  0
  6 52  1  0
  6 53  1  0
  7 54  1  0
  7 55  1  0
  8 56  1  0
 10 57  1  0
 10 58  1  0
 11 59  1  0
 11 60  1  0
 12 61  1  0
 15 62  1  0
 15 63  1  0
 16 64  1  0
 17 65  1  0
 17 66  1  0
 18 67  1  0
 20 68  1  0
 21 69  1  0
 22 70  1  0
 22 71  1  0
 24 72  1  0
 26 73  1  0
 28 74  1  0
 28 75  1  0
 30 76  1  0
 31 77  1  0
 31 78  1  0
 32 79  1  0
 32 80  1  0
 33 81  1  0
 34 82  1  0
 36 83  1  0
 38 84  1  0
 39 85  1  0
 39 86  1  0
 40 87  1  0
 40 88  1  0
 40 89  1  0
 41 90  1  0
 41 91  1  0
 42 92  1  0
 42 93  1  0
 43 94  1  0
 43 95  1  0
 44 96  1  0
M  END
