
     RDKit          2D

 21 21  0  0  0  0  0  0  0  0999 V2000
   10.4328  -22.0640   -2.5511 C   0  0  0  0  0  0  0  0  0  0  0  0
   10.9269  -20.8835   -3.3336 C   0  0  0  0  0  0  0  0  0  0  0  0
   11.7944  -21.7909   -4.1545 F   0  0  0  0  0  0  0  0  0  0  0  0
   11.4211  -19.7030   -4.1160 C   0  0  0  0  0  0  0  0  0  0  0  0
   11.9152  -18.5226   -4.8986 C   0  0  0  0  0  0  0  0  0  0  0  0
   12.8538  -19.2114   -5.8444 C   0  0  0  0  0  0  0  0  0  0  0  0
   11.1483  -17.4238   -4.2245 C   0  0  0  0  0  0  0  0  0  0  0  0
   12.0834  -17.1029   -5.3526 C   0  0  0  0  0  0  0  0  0  0  0  0
   12.9734  -17.1158   -6.3675 F   0  0  0  0  0  0  0  0  0  0  0  0
    9.9386  -23.2445   -1.7685 H   0  0  0  0  0  0  0  0  0  0  0  0
   11.4410  -22.9392   -3.2348 H   0  0  0  0  0  0  0  0  0  0  0  0
    9.4246  -21.1887   -1.8673 H   0  0  0  0  0  0  0  0  0  0  0  0
   10.0594  -19.9761   -2.5126 H   0  0  0  0  0  0  0  0  0  0  0  0
   12.0696  -20.5491   -4.6989 H   0  0  0  0  0  0  0  0  0  0  0  0
   10.5920  -19.0219   -3.2967 H   0  0  0  0  0  0  0  0  0  0  0  0
   13.7923  -19.9003   -6.7902 H   0  0  0  0  0  0  0  0  0  0  0  0
   12.6747  -20.3410   -5.4343 H   0  0  0  0  0  0  0  0  0  0  0  0
   13.2587  -18.1075   -6.5076 H   0  0  0  0  0  0  0  0  0  0  0  0
   10.6455  -16.0475   -3.9035 H   0  0  0  0  0  0  0  0  0  0  0  0
   10.3982  -17.9994   -3.2610 H   0  0  0  0  0  0  0  0  0  0  0  0
   11.9054  -15.6152   -5.4234 H   0  0  0  0  0  0  0  0  0  0  0  0
  1  2  1  0
  2  3  1  0
  2  4  1  0
  4  5  1  0
  5  6  1  0
  5  7  1  0
  7  8  1  0
  8  9  1  0
  8  5  1  0
  1 10  1  0
  1 11  1  0
  1 12  1  0
  2 13  1  0
  4 14  1  0
  4 15  1  0
  6 16  1  0
  6 17  1  0
  6 18  1  0
  7 19  1  0
  7 20  1  0
  8 21  1  0
M  END
