
     RDKit          2D

 21 21  0  0  0  0  0  0  0  0999 V2000
    1.6830   26.1111    2.9827 C   0  0  0  0  0  0  0  0  0  0  0  0
    1.4430   26.9533    4.2005 C   0  0  0  0  0  0  0  0  0  0  0  0
    0.0535   26.3990    4.3099 C   0  0  0  0  0  0  0  0  0  0  0  0
   -1.3360   25.8447    4.4194 C   0  0  0  0  0  0  0  0  0  0  0  0
   -2.7256   25.2904    4.5288 C   0  0  0  0  0  0  0  0  0  0  0  0
   -2.9926   25.5421    5.9832 C   0  0  0  0  0  0  0  0  0  0  0  0
   -4.0402   24.8904    5.1302 O   0  0  0  0  0  0  0  0  0  0  0  0
    1.2030   27.7955    5.4183 C   0  0  0  0  0  0  0  0  0  0  0  0
    2.2852   28.6990    5.9306 N   0  0  0  0  0  2  0  0  0  0  0  0
   -0.0502   27.8575    6.2404 O   0  0  0  0  0  1  0  0  0  0  0  0
    1.9231   25.2689    1.7648 H   0  0  0  0  0  0  0  0  0  0  0  0
    3.0713   26.6682    2.8711 H   0  0  0  0  0  0  0  0  0  0  0  0
    0.8867   25.7241    2.9604 H   0  0  0  0  0  0  0  0  0  0  0  0
    2.8326   27.5076    4.0910 H   0  0  0  0  0  0  0  0  0  0  0  0
   -0.1427   26.6843    5.7694 H   0  0  0  0  0  0  0  0  0  0  0  0
   -0.0307   26.1507    3.4639 H   0  0  0  0  0  0  0  0  0  0  0  0
   -1.2094   26.2268    5.7080 H   0  0  0  0  0  0  0  0  0  0  0  0
   -1.3072   25.4850    2.9634 H   0  0  0  0  0  0  0  0  0  0  0  0
   -2.9411   24.8462    3.1124 H   0  0  0  0  0  0  0  0  0  0  0  0
   -3.7099   25.5710    7.3003 H   0  0  0  0  0  0  0  0  0  0  0  0
   -1.8890   26.1310    6.4911 H   0  0  0  0  0  0  0  0  0  0  0  0
  1  2  1  0
  2  3  1  0
  3  4  1  0
  4  5  1  0
  5  6  1  0
  6  7  1  0
  2  8  1  0
  8  9  2  0
  8 10  1  0
  7  5  1  0
  1 11  1  0
  1 12  1  0
  1 13  1  0
  2 14  1  0
  3 15  1  0
  3 16  1  0
  4 17  1  0
  4 18  1  0
  5 19  1  0
  6 20  1  0
  6 21  1  0
M  RAD  2   9   2  10   2
M  END
