
     RDKit          2D

 18 22  0  0  0  0  0  0  0  0999 V2000
   16.8952  -20.5521  -15.1071 O   0  0  0  0  0  0  0  0  0  0  0  0
   16.5874  -21.0150  -13.7138 C   0  0  0  0  0  0  0  0  0  0  0  0
   15.2712  -21.6691  -13.4144 O   0  0  0  0  0  0  0  0  0  0  0  0
   16.2796  -21.4778  -12.3206 C   0  0  0  0  0  0  0  0  0  0  0  0
   16.2577  -21.8289  -10.8625 C   0  0  0  0  0  0  0  0  0  0  0  0
   16.5224  -22.0532   -9.4032 C   0  0  0  0  0  0  0  0  0  0  0  0
   17.5603  -21.3918  -10.2607 C   0  0  0  0  0  0  0  0  0  0  0  0
   18.9271  -20.8579   -9.9502 C   0  0  0  0  0  0  0  0  0  0  0  0
   18.3873  -20.7704  -11.3469 C   0  0  0  0  0  0  0  0  0  0  0  0
   17.5959  -20.8236  -12.6200 C   0  0  0  0  0  0  0  0  0  0  0  0
   15.8508  -20.6537  -16.1790 H   0  0  0  0  0  0  0  0  0  0  0  0
   14.8861  -22.4363  -10.8682 H   0  0  0  0  0  0  0  0  0  0  0  0
   15.2376  -22.7167   -9.0043 H   0  0  0  0  0  0  0  0  0  0  0  0
   17.2333  -22.0470   -8.0824 H   0  0  0  0  0  0  0  0  0  0  0  0
   19.0013  -21.1682   -8.4845 H   0  0  0  0  0  0  0  0  0  0  0  0
   20.2684  -20.2163  -10.1487 H   0  0  0  0  0  0  0  0  0  0  0  0
   19.5906  -20.0980  -11.9383 H   0  0  0  0  0  0  0  0  0  0  0  0
   18.6337  -20.1622  -13.4776 H   0  0  0  0  0  0  0  0  0  0  0  0
  1  2  1  0
  2  3  1  0
  3  4  1  0
  4  5  1  0
  5  6  1  0
  6  7  1  0
  7  8  1  0
  8  9  1  0
  9 10  1  0
  4  2  1  0
  7  5  1  0
 10  2  1  0
 10  4  1  0
  9  7  1  0
  1 11  1  0
  5 12  1  0
  6 13  1  0
  6 14  1  0
  8 15  1  0
  8 16  1  0
  9 17  1  0
 10 18  1  0
M  END
