
     RDKit          2D

 93106  0  0  0  0  0  0  0  0999 V2000
   -1.4030   31.9031    9.8339 C   0  0  0  0  0  0  0  0  0  0  0  0
   -1.2774   31.0573    8.6015 C   0  0  0  0  0  0  0  0  0  0  0  0
   -0.2986   30.9732    7.4679 C   0  0  0  0  0  0  0  0  0  0  0  0
    0.6801   30.8892    6.3343 C   0  0  0  0  0  0  0  0  0  0  0  0
   -0.1211   29.7771    5.7250 O   0  0  0  0  0  0  0  0  0  0  0  0
   -1.0999   29.8612    6.8586 C   0  0  0  0  0  0  0  0  0  0  0  0
   -2.0786   29.9452    7.9921 C   0  0  0  0  0  0  0  0  0  0  0  0
   -3.3336   29.4247    8.6277 C   0  0  0  0  0  0  0  0  0  0  0  0
   -4.2394   28.3290    8.1492 C   0  0  0  0  0  0  0  0  0  0  0  0
   -4.1138   27.4832    6.9167 C   0  0  0  0  0  0  0  0  0  0  0  0
   -5.3689   26.9627    7.5523 C   0  0  0  0  0  0  0  0  0  0  0  0
   -6.6239   26.4423    8.1880 C   0  0  0  0  0  0  0  0  0  0  0  0
   -7.8789   25.9217    8.8236 C   0  0  0  0  0  0  0  0  0  0  0  0
   -3.0516   27.5242    5.8586 C   0  0  0  0  0  0  0  0  0  0  0  0
   -2.3923   27.0775    4.5873 O   0  0  0  0  0  0  0  0  0  0  0  0
   -3.9573   26.4285    5.3799 P   0  0  0  0  0  0  0  0  0  0  0  0
   -3.6456   25.7005    4.1060 C   0  0  0  0  0  0  0  0  0  0  0  0
   -2.4293   26.0697    3.3095 Sb  0  0  0  0  0  3  0  0  0  0  0  0
   -3.3339   24.9725    2.8321 C   0  0  0  0  0  0  0  0  0  0  0  0
   -3.0221   24.2445    1.5582 C   0  0  0  0  0  0  0  0  0  0  0  0
   -1.7621   24.9519    1.1556 C   0  0  0  0  0  0  0  0  0  0  0  0
   -2.3104   23.8500    0.2981 C   0  0  0  0  0  0  0  0  0  0  0  0
   -3.3544   22.8054    0.0355 I   0  0  0  0  0  0  0  0  0  0  0  0
   -1.5987   23.4554   -0.9620 C   0  0  0  0  0  0  0  0  0  0  0  0
   -0.3387   24.1628   -1.3645 N   0  0  0  0  0  0  0  0  0  0  0  0
    0.9213   24.8701   -1.7672 C   0  0  0  0  0  0  0  0  0  0  0  0
    0.2096   25.2646   -0.5071 C   0  0  0  0  0  0  0  0  0  0  0  0
    1.2536   26.3092   -0.2445 O   0  0  0  0  0  0  0  0  0  0  0  0
    0.5418   26.7038    1.0156 C   0  0  0  0  0  0  0  0  0  0  0  0
    0.4475   27.5677    2.2381 C   0  0  0  0  0  0  0  0  0  0  0  0
    1.6719   28.4144    2.0540 C   0  0  0  0  0  0  0  0  0  0  0  0
    2.8964   29.2610    1.8697 C   0  0  0  0  0  0  0  0  0  0  0  0
   -0.0722   28.1377    3.5247 C   0  0  0  0  0  0  0  0  0  0  0  0
   -0.5918   28.7076    4.8112 C   0  0  0  0  0  0  0  0  0  0  0  0
   -1.1114   29.2775    6.0977 C   0  0  0  0  0  0  0  0  0  0  0  0
   -0.5965   26.5232    1.9755 C   0  0  0  0  0  0  0  0  0  0  0  0
   -0.5022   25.6592    0.7530 C   0  0  0  0  0  0  0  0  0  0  0  0
   -4.5502   24.6033    3.6286 C   0  0  0  0  0  0  0  0  0  0  0  0
   -5.0984   23.5014    2.7711 C   0  0  0  0  0  0  0  0  0  0  0  0
   -5.6466   22.3995    1.9137 C   0  0  0  0  0  0  0  0  0  0  0  0
   -6.2383   23.3228    3.7296 C   0  0  0  0  0  0  0  0  0  0  0  0
   -7.3783   23.1441    4.6880 C   0  0  0  0  0  0  0  0  0  0  0  0
   -1.9011   28.7490    6.2492 C   0  0  0  0  0  0  0  0  0  0  0  0
   -2.8799   28.8331    7.3827 C   0  0  0  0  0  0  0  0  0  0  0  0
   -3.8586   28.9172    8.5163 O   0  0  0  0  0  0  0  0  0  0  0  0
   -0.3757   32.9555   10.1291 H   0  0  0  0  0  0  0  0  0  0  0  0
   -2.5558   31.6964   10.7711 H   0  0  0  0  0  0  0  0  0  0  0  0
    0.5026   32.0853    8.0772 H   0  0  0  0  0  0  0  0  0  0  0  0
    1.9388   31.6161    5.9637 H   0  0  0  0  0  0  0  0  0  0  0  0
   -2.9007   30.5022    9.5773 H   0  0  0  0  0  0  0  0  0  0  0  0
   -4.3044   29.5198    9.7673 H   0  0  0  0  0  0  0  0  0  0  0  0
   -5.0253   28.6477    9.3864 H   0  0  0  0  0  0  0  0  0  0  0  0
   -5.4786   27.5196    8.3921 H   0  0  0  0  0  0  0  0  0  0  0  0
   -4.9441   26.3741    6.3416 H   0  0  0  0  0  0  0  0  0  0  0  0
   -5.3216   25.5888    6.9523 H   0  0  0  0  0  0  0  0  0  0  0  0
   -5.7222   28.2097    8.3073 H   0  0  0  0  0  0  0  0  0  0  0  0
   -6.4667   27.4292    9.3064 H   0  0  0  0  0  0  0  0  0  0  0  0
   -6.7811   25.4552    7.0695 H   0  0  0  0  0  0  0  0  0  0  0  0
   -9.1339   25.4012    9.4592 H   0  0  0  0  0  0  0  0  0  0  0  0
   -8.0369   24.9358    7.7042 H   0  0  0  0  0  0  0  0  0  0  0  0
   -7.7209   26.9077    9.9429 H   0  0  0  0  0  0  0  0  0  0  0  0
   -2.4052   26.1573    3.4028 H   0  0  0  0  0  0  0  0  0  0  0  0
   -5.2216   25.8170    5.9067 H   0  0  0  0  0  0  0  0  0  0  0  0
   -1.2519   26.9988    3.2819 H   0  0  0  0  0  0  0  0  0  0  0  0
   -4.1019   23.2220    1.3618 H   0  0  0  0  0  0  0  0  0  0  0  0
   -1.3657   24.2847   -0.1280 H   0  0  0  0  0  0  0  0  0  0  0  0
   -1.2869   22.7274   -2.2358 H   0  0  0  0  0  0  0  0  0  0  0  0
   -2.7503   22.4953   -1.0018 H   0  0  0  0  0  0  0  0  0  0  0  0
    2.0596   25.0507   -2.7271 H   0  0  0  0  0  0  0  0  0  0  0  0
    1.5113   29.2407    3.2955 H   0  0  0  0  0  0  0  0  0  0  0  0
    1.9842   27.6858    0.7805 H   0  0  0  0  0  0  0  0  0  0  0  0
    4.1209   30.1076    1.6855 H   0  0  0  0  0  0  0  0  0  0  0  0
    3.5131   28.1853    1.0255 H   0  0  0  0  0  0  0  0  0  0  0  0
    2.2797   30.3366    2.7140 H   0  0  0  0  0  0  0  0  0  0  0  0
    1.0079   29.1598    3.7213 H   0  0  0  0  0  0  0  0  0  0  0  0
   -1.2789   27.2545    3.6417 H   0  0  0  0  0  0  0  0  0  0  0  0
    0.5613   29.6662    4.8523 H   0  0  0  0  0  0  0  0  0  0  0  0
   -1.7448   27.7490    4.7701 H   0  0  0  0  0  0  0  0  0  0  0  0
   -1.6310   29.8475    7.3843 H   0  0  0  0  0  0  0  0  0  0  0  0
   -2.3526   28.4813    6.3724 H   0  0  0  0  0  0  0  0  0  0  0  0
    0.1298   30.0738    5.8231 H   0  0  0  0  0  0  0  0  0  0  0  0
   -5.4784   24.7528    4.7973 H   0  0  0  0  0  0  0  0  0  0  0  0
   -4.0338   23.5444    1.7153 H   0  0  0  0  0  0  0  0  0  0  0  0
   -6.1949   21.2977    1.0562 H   0  0  0  0  0  0  0  0  0  0  0  0
   -6.8402   22.0821    2.7649 H   0  0  0  0  0  0  0  0  0  0  0  0
   -4.5114   22.5840    0.9506 H   0  0  0  0  0  0  0  0  0  0  0  0
   -6.9214   22.2072    2.9954 H   0  0  0  0  0  0  0  0  0  0  0  0
   -5.8332   24.3947    4.6974 H   0  0  0  0  0  0  0  0  0  0  0  0
   -8.5182   22.9654    5.6465 H   0  0  0  0  0  0  0  0  0  0  0  0
   -6.7949   24.2008    5.5787 H   0  0  0  0  0  0  0  0  0  0  0  0
   -7.9615   22.0874    3.7973 H   0  0  0  0  0  0  0  0  0  0  0  0
   -3.8941   27.7744    7.0658 H   0  0  0  0  0  0  0  0  0  0  0  0
   -3.6171   29.8736    9.6463 H   0  0  0  0  0  0  0  0  0  0  0  0
  1  2  2  3
  2  3  1  0
  3  4  1  0
  4  5  1  0
  5  6  1  0
  6  7  1  0
  7  8  1  0
  8  9  1  0
  9 10  1  0
 10 11  1  0
 11 12  1  0
 12 13  1  0
 10 14  1  0
 14 15  1  0
 14 16  1  0
 16 17  1  0
 17 18  1  0
 18 19  1  0
 19 20  1  0
 20 21  1  0
 21 22  1  0
 22 23  1  0
 22 24  1  0
 24 25  1  0
 25 26  1  0
 26 27  1  0
 27 28  1  0
 28 29  1  0
 29 30  1  0
 30 31  1  0
 31 32  1  0
 30 33  1  0
 33 34  1  0
 34 35  1  0
 30 36  1  0
 36 37  1  0
 19 38  1  0
 38 39  1  0
 39 40  1  0
 39 41  1  0
 41 42  1  0
 14 43  1  0
 43 44  1  0
 44 45  1  0
  7  2  1  0
 19 17  1  0
 22 20  1  0
 27 25  1  0
 36 29  1  0
  6  3  1  0
 44  7  1  0
 43  4  1  0
 43  6  1  0
 38 17  1  0
 37 21  1  0
 36 26  1  0
 37 27  1  0
 37 29  1  0
  1 46  1  0
  1 47  1  0
  3 48  1  0
  4 49  1  0
  8 50  1  0
  8 51  1  0
  9 52  1  0
  9 53  1  0
 10 54  1  0
 11 55  1  0
 11 56  1  0
 12 57  1  0
 12 58  1  0
 13 59  1  0
 13 60  1  0
 13 61  1  0
 15 62  1  0
 16 63  1  0
 18 64  1  0
 20 65  1  0
 21 66  1  0
 24 67  1  0
 24 68  1  0
 26 69  1  0
 31 70  1  0
 31 71  1  0
 32 72  1  0
 32 73  1  0
 32 74  1  0
 33 75  1  0
 33 76  1  0
 34 77  1  0
 34 78  1  0
 35 79  1  0
 35 80  1  0
 35 81  1  0
 38 82  1  0
 39 83  1  0
 40 84  1  0
 40 85  1  0
 40 86  1  0
 41 87  1  0
 41 88  1  0
 42 89  1  0
 42 90  1  0
 42 91  1  0
 44 92  1  0
 45 93  1  0
M  END
