
     RDKit          2D

 62 64  0  0  0  0  0  0  0  0999 V2000
    5.7371   27.0781    8.5164 C   0  0  0  0  0  0  0  0  0  0  0  0
    5.4342   25.6484    8.1787 C   0  0  0  0  0  0  0  0  0  0  0  0
    4.0239   25.2295    7.8859 C   0  0  0  0  0  0  0  0  0  0  0  0
    2.6137   24.8105    7.5931 C   0  0  0  0  0  0  0  0  0  0  0  0
    1.2035   24.3916    7.3003 N   0  0  0  0  0  0  0  0  0  0  0  0
    0.0961   25.4024    7.3452 N   0  0  0  0  0  0  0  0  0  0  0  0
   -1.3141   24.9835    7.0524 C   0  0  0  0  0  0  0  0  0  0  0  0
   -0.8493   23.5748    6.8292 C   0  0  0  0  0  0  0  0  0  0  0  0
   -0.3845   22.1663    6.6059 N   0  0  0  0  0  0  0  0  0  0  0  0
   -1.3733   21.0993    6.2402 C   0  0  0  0  0  0  0  0  0  0  0  0
   -0.2680   20.0859    6.2082 N   0  0  0  0  0  0  0  0  0  0  0  0
   -1.2568   19.0188    5.8425 C   0  0  0  0  0  0  0  0  0  0  0  0
   -2.6658   18.6015    5.5417 C   0  0  0  0  0  0  0  0  0  0  0  0
   -2.3622   20.0323    5.8745 C   0  0  0  0  0  0  0  0  0  0  0  0
   -1.7789   26.3920    7.2757 N   0  0  0  0  0  0  0  0  0  0  0  0
   -3.2326   26.7336    7.1332 C   0  0  0  0  0  0  0  0  0  0  0  0
   -3.6974   28.1422    7.3565 C   0  0  0  0  0  0  0  0  0  0  0  0
   -5.1510   28.4838    7.2139 C   0  0  0  0  0  0  0  0  0  0  0  0
   -2.7086   29.2092    7.7222 C   0  0  0  0  0  0  0  0  0  0  0  0
   -1.7198   30.2761    8.0880 C   0  0  0  0  0  0  0  0  0  0  0  0
   -1.7158   31.7017    7.6211 O   0  0  0  0  0  0  0  0  0  0  0  0
   -3.7793   29.9440    8.4731 C   0  0  0  0  0  0  0  0  0  0  0  0
   -4.8499   30.6788    9.2240 C   0  0  0  0  0  0  0  0  0  0  0  0
   -5.9205   31.4135    9.9749 C   0  0  0  0  0  0  0  0  0  0  0  0
    4.4880   23.8199    7.6671 C   0  0  0  0  0  0  0  0  0  0  0  0
    5.4068   22.6391    7.5600 C   0  0  0  0  0  0  0  0  0  0  0  0
    5.9582   23.9888    7.9127 C   0  0  0  0  0  0  0  0  0  0  0  0
    7.1474   27.4971    8.8093 H   0  0  0  0  0  0  0  0  0  0  0  0
    4.6298   28.0890    8.5614 H   0  0  0  0  0  0  0  0  0  0  0  0
    6.5415   24.6376    8.1338 H   0  0  0  0  0  0  0  0  0  0  0  0
    3.5597   26.6389    8.1047 H   0  0  0  0  0  0  0  0  0  0  0  0
    2.1608   26.2330    7.7392 H   0  0  0  0  0  0  0  0  0  0  0  0
    2.8913   23.3475    7.4125 H   0  0  0  0  0  0  0  0  0  0  0  0
    1.0425   23.6317    7.1208 H   0  0  0  0  0  0  0  0  0  0  0  0
    0.3989   26.8322    7.6829 H   0  0  0  0  0  0  0  0  0  0  0  0
   -2.7244   24.5645    6.7596 H   0  0  0  0  0  0  0  0  0  0  0  0
   -2.2596   23.1559    6.5364 H   0  0  0  0  0  0  0  0  0  0  0  0
    0.0250   23.6136    6.9650 H   0  0  0  0  0  0  0  0  0  0  0  0
    1.0691   21.8247    6.7484 H   0  0  0  0  0  0  0  0  0  0  0  0
   -2.4788   22.1128    6.2722 H   0  0  0  0  0  0  0  0  0  0  0  0
    1.2129   20.1237    6.4442 H   0  0  0  0  0  0  0  0  0  0  0  0
   -0.4449   17.7638    5.7170 H   0  0  0  0  0  0  0  0  0  0  0  0
   -2.4546   17.1393    5.2822 H   0  0  0  0  0  0  0  0  0  0  0  0
   -4.1482   18.6920    5.3312 H   0  0  0  0  0  0  0  0  0  0  0  0
   -3.6858   20.7351    5.8107 H   0  0  0  0  0  0  0  0  0  0  0  0
   -4.2214   25.6666    6.7675 H   0  0  0  0  0  0  0  0  0  0  0  0
   -5.7843   29.8309    7.3997 H   0  0  0  0  0  0  0  0  0  0  0  0
   -6.1398   27.4168    6.8481 H   0  0  0  0  0  0  0  0  0  0  0  0
   -1.6379   28.4744    6.9714 H   0  0  0  0  0  0  0  0  0  0  0  0
   -0.5843   29.9602    9.0159 H   0  0  0  0  0  0  0  0  0  0  0  0
   -2.9217   31.0781    8.9513 H   0  0  0  0  0  0  0  0  0  0  0  0
   -5.0041   29.1007    8.2768 H   0  0  0  0  0  0  0  0  0  0  0  0
   -3.8001   31.3853   10.0294 H   0  0  0  0  0  0  0  0  0  0  0  0
   -6.0223   30.0670    8.5161 H   0  0  0  0  0  0  0  0  0  0  0  0
   -6.9911   32.1484   10.7258 H   0  0  0  0  0  0  0  0  0  0  0  0
   -4.9280   32.4725   10.3536 H   0  0  0  0  0  0  0  0  0  0  0  0
   -6.9129   30.3545    9.5961 H   0  0  0  0  0  0  0  0  0  0  0  0
    3.2745   23.0063    7.3278 H   0  0  0  0  0  0  0  0  0  0  0  0
    4.4170   21.5707    7.2012 H   0  0  0  0  0  0  0  0  0  0  0  0
    6.6692   21.8293    7.5775 H   0  0  0  0  0  0  0  0  0  0  0  0
    7.4122   23.6477    8.0527 H   0  0  0  0  0  0  0  0  0  0  0  0
    6.3624   25.3921    8.2552 H   0  0  0  0  0  0  0  0  0  0  0  0
  1  2  2  3
  2  3  1  0
  3  4  1  0
  4  5  1  0
  5  6  1  0
  6  7  1  0
  7  8  1  0
  8  9  1  0
  9 10  1  0
 10 11  1  0
 11 12  1  0
 12 13  1  0
 13 14  1  0
  7 15  1  0
 15 16  2  3
 16 17  1  0
 17 18  2  3
 17 19  1  0
 19 20  1  0
 20 21  2  0
 19 22  1  0
 22 23  1  0
 23 24  1  0
  3 25  1  0
 25 26  1  0
 26 27  1  0
 14 10  1  0
 27 25  1  0
 14 12  1  0
  1 28  1  0
  1 29  1  0
  2 30  1  0
  3 31  1  1
  4 32  1  0
  4 33  1  0
  5 34  1  0
  6 35  1  0
  7 36  1  6
  8 37  1  0
  8 38  1  0
  9 39  1  0
 10 40  1  6
 11 41  1  0
 12 42  1  6
 13 43  1  0
 13 44  1  0
 14 45  1  6
 16 46  1  0
 18 47  1  0
 18 48  1  0
 19 49  1  1
 20 50  1  0
 22 51  1  0
 22 52  1  0
 23 53  1  0
 23 54  1  0
 24 55  1  0
 24 56  1  0
 24 57  1  0
 25 58  1  0
 26 59  1  0
 26 60  1  0
 27 61  1  0
 27 62  1  0
M  END
