
     RDKit          2D

 38 40  0  0  0  0  0  0  0  0999 V2000
   15.1858  -22.0096   -8.5882 C   0  0  0  0  0  0  0  0  0  0  0  0
   15.5181  -23.0805   -7.5920 C   0  0  0  0  0  0  0  0  0  0  0  0
   15.8504  -24.1516   -6.5957 O   0  0  0  0  0  0  0  0  0  0  0  0
   17.2446  -24.2289   -7.1439 C   0  0  0  0  0  0  0  0  0  0  0  0
   17.5768  -25.2999   -6.1476 O   0  0  0  0  0  0  0  0  0  0  0  0
   16.9122  -23.1579   -8.1402 C   0  0  0  0  0  0  0  0  0  0  0  0
   18.3063  -23.2353   -8.6884 C   0  0  0  0  0  0  0  0  0  0  0  0
   19.7003  -23.3126   -9.2366 C   0  0  0  0  0  0  0  0  0  0  0  0
   21.0944  -23.3900   -9.7848 O   0  0  0  0  0  0  0  0  0  0  0  0
   17.9739  -22.1643   -9.6847 C   0  0  0  0  0  0  0  0  0  0  0  0
   17.6415  -21.0933  -10.6809 C   0  0  0  0  0  0  0  0  0  0  0  0
   18.9568  -20.9835  -11.3939 C   0  0  0  0  0  0  0  0  0  0  0  0
   19.1213  -20.0036  -12.5175 C   0  0  0  0  0  0  0  0  0  0  0  0
   20.5519  -20.2658  -12.8844 C   0  0  0  0  0  0  0  0  0  0  0  0
   17.8061  -20.1134  -11.8046 C   0  0  0  0  0  0  0  0  0  0  0  0
   16.6553  -19.2433  -12.2154 C   0  0  0  0  0  0  0  0  0  0  0  0
   14.8534  -20.9386   -9.5845 H   0  0  0  0  0  0  0  0  0  0  0  0
   13.7930  -21.9290   -8.0370 H   0  0  0  0  0  0  0  0  0  0  0  0
   15.9781  -21.9797   -8.9829 H   0  0  0  0  0  0  0  0  0  0  0  0
   14.1240  -23.0032   -7.0437 H   0  0  0  0  0  0  0  0  0  0  0  0
   18.0855  -24.3513   -7.3935 H   0  0  0  0  0  0  0  0  0  0  0  0
   18.9502  -25.9026   -6.1246 H   0  0  0  0  0  0  0  0  0  0  0  0
   16.8177  -22.5358   -8.7635 H   0  0  0  0  0  0  0  0  0  0  0  0
   18.6013  -23.8685   -8.1440 H   0  0  0  0  0  0  0  0  0  0  0  0
   19.7090  -22.7104   -9.8860 H   0  0  0  0  0  0  0  0  0  0  0  0
   20.0329  -24.3831   -8.2398 H   0  0  0  0  0  0  0  0  0  0  0  0
   22.0795  -24.3557   -9.1957 H   0  0  0  0  0  0  0  0  0  0  0  0
   18.9011  -22.0306  -10.2486 H   0  0  0  0  0  0  0  0  0  0  0  0
   19.1028  -22.2275  -10.1293 H   0  0  0  0  0  0  0  0  0  0  0  0
   16.2110  -20.8311  -10.3141 H   0  0  0  0  0  0  0  0  0  0  0  0
   20.1074  -21.8537  -10.9830 H   0  0  0  0  0  0  0  0  0  0  0  0
   18.7889  -18.9326  -13.5138 H   0  0  0  0  0  0  0  0  0  0  0  0
   21.9825  -20.5279  -13.2513 H   0  0  0  0  0  0  0  0  0  0  0  0
   20.6741  -18.8655  -13.4081 H   0  0  0  0  0  0  0  0  0  0  0  0
   20.4296  -21.6661  -12.3607 H   0  0  0  0  0  0  0  0  0  0  0  0
   15.5047  -18.3730  -12.6262 H   0  0  0  0  0  0  0  0  0  0  0  0
   17.6074  -18.3072  -12.8991 H   0  0  0  0  0  0  0  0  0  0  0  0
   15.7034  -20.1794  -11.5317 H   0  0  0  0  0  0  0  0  0  0  0  0
  1  2  1  0
  2  3  1  0
  3  4  1  0
  4  5  1  0
  4  6  1  0
  6  7  1  0
  7  8  1  0
  8  9  1  0
  7 10  1  0
 10 11  1  0
 11 12  1  0
 12 13  1  0
 13 14  1  0
 13 15  1  0
 15 16  1  0
  6  2  1  0
 15 11  1  0
 15 12  1  0
  1 17  1  0
  1 18  1  0
  1 19  1  0
  2 20  1  0
  4 21  1  0
  5 22  1  0
  6 23  1  0
  7 24  1  0
  8 25  1  0
  8 26  1  0
  9 27  1  0
 10 28  1  0
 10 29  1  0
 11 30  1  0
 12 31  1  0
 13 32  1  0
 14 33  1  0
 14 34  1  0
 14 35  1  0
 16 36  1  0
 16 37  1  0
 16 38  1  0
M  END
