
     RDKit          2D

 37 38  0  0  0  0  0  0  0  0999 V2000
   -4.5169   26.8660    2.0885 C   0  0  0  0  0  0  0  0  0  0  0  0
   -3.2172   27.4495    2.5582 C   0  0  0  0  0  0  0  0  0  0  0  0
   -1.9176   28.0328    3.0279 C   0  0  0  0  0  0  0  0  0  0  0  0
   -0.6179   28.6162    3.4976 C   0  0  0  0  0  0  0  0  0  0  0  0
    0.6816   29.1997    3.9672 C   0  0  0  0  0  0  0  0  0  0  0  0
    1.9812   29.7830    4.4369 O   0  0  0  0  0  0  0  0  0  0  0  0
    0.3359   30.5013    3.3070 O   0  0  0  0  0  0  0  0  0  0  0  0
    1.0274   27.8979    4.6276 Br  0  0  0  0  0  0  0  0  0  0  0  0
   -2.8727   26.1486    3.2209 C   0  0  0  0  0  0  0  0  0  0  0  0
   -2.5283   24.8477    3.8835 N   0  0  0  0  0  0  0  0  0  0  0  0
   -1.2312   24.7027    4.6226 C   0  0  0  0  0  0  0  0  0  0  0  0
   -0.8867   23.4019    5.2852 C   0  0  0  0  0  0  0  0  0  0  0  0
   -0.5423   22.1010    5.9478 C   0  0  0  0  0  0  0  0  0  0  0  0
    0.1687   21.4143    4.8196 C   0  0  0  0  0  0  0  0  0  0  0  0
    0.7186   20.0318    5.0104 C   0  0  0  0  0  0  0  0  0  0  0  0
    1.3099   19.7969    3.6521 O   0  0  0  0  0  0  0  0  0  0  0  0
    0.0075   20.7185    6.1387 C   0  0  0  0  0  0  0  0  0  0  0  0
   -5.8165   26.2826    1.6188 H   0  0  0  0  0  0  0  0  0  0  0  0
   -5.1344   28.2329    2.0997 H   0  0  0  0  0  0  0  0  0  0  0  0
   -4.2484   26.0229    2.0482 H   0  0  0  0  0  0  0  0  0  0  0  0
   -3.5618   28.7503    1.8955 H   0  0  0  0  0  0  0  0  0  0  0  0
   -2.2612   29.3330    2.3635 H   0  0  0  0  0  0  0  0  0  0  0  0
   -1.6228   27.3128    3.4511 H   0  0  0  0  0  0  0  0  0  0  0  0
   -0.9630   29.9175    2.8359 H   0  0  0  0  0  0  0  0  0  0  0  0
   -0.2730   27.3150    4.1592 H   0  0  0  0  0  0  0  0  0  0  0  0
    2.3319   31.2019    4.0998 H   0  0  0  0  0  0  0  0  0  0  0  0
   -0.9692   30.6517    2.5829 H   0  0  0  0  0  0  0  0  0  0  0  0
   -3.6104   25.7135    2.9948 H   0  0  0  0  0  0  0  0  0  0  0  0
   -2.0855   26.3963    3.5424 H   0  0  0  0  0  0  0  0  0  0  0  0
   -0.2783   25.8588    4.6991 H   0  0  0  0  0  0  0  0  0  0  0  0
   -1.5455   23.8708    6.5486 H   0  0  0  0  0  0  0  0  0  0  0  0
   -0.2279   22.9329    4.0219 H   0  0  0  0  0  0  0  0  0  0  0  0
   -1.1337   22.3359    7.3062 H   0  0  0  0  0  0  0  0  0  0  0  0
    0.3299   22.1101    3.5006 H   0  0  0  0  0  0  0  0  0  0  0  0
    1.0630   18.7309    5.6731 H   0  0  0  0  0  0  0  0  0  0  0  0
    1.2123   20.8595    2.5978 H   0  0  0  0  0  0  0  0  0  0  0  0
   -0.1536   20.0227    7.4577 H   0  0  0  0  0  0  0  0  0  0  0  0
  1  2  1  0
  2  3  1  0
  3  4  1  0
  4  5  1  0
  5  6  1  0
  5  7  1  0
  5  8  1  0
  2  9  1  0
  9 10  1  0
 10 11  2  3
 11 12  1  0
 12 13  1  0
 13 14  1  0
 14 15  1  0
 15 16  1  0
 15 17  1  0
 17 13  1  0
 17 14  1  0
  1 18  1  0
  1 19  1  0
  1 20  1  0
  2 21  1  1
  3 22  1  0
  3 23  1  0
  4 24  1  0
  4 25  1  0
  6 26  1  0
  7 27  1  0
  9 28  1  0
  9 29  1  0
 11 30  1  0
 12 31  1  0
 12 32  1  0
 13 33  1  1
 14 34  1  1
 15 35  1  1
 16 36  1  0
 17 37  1  1
M  END
