
     RDKit          2D

 26 30  0  0  0  0  0  0  0  0999 V2000
   14.1469  -19.5566  -11.1174 F   0  0  0  0  0  0  0  0  0  0  0  0
   15.2301  -19.8157  -12.1223 C   0  0  0  0  0  0  0  0  0  0  0  0
   16.2525  -20.4691  -11.2404 C   0  0  0  0  0  0  0  0  0  0  0  0
   17.2751  -21.1225  -10.3586 N   0  0  0  0  0  0  0  0  0  0  0  0
   18.5826  -21.5773  -10.9360 C   0  0  0  0  0  0  0  0  0  0  0  0
   18.8678  -21.3786  -12.3952 C   0  0  0  0  0  0  0  0  0  0  0  0
   17.8453  -20.7252  -13.2770 C   0  0  0  0  0  0  0  0  0  0  0  0
   19.2205  -21.3097  -13.4085 C   0  0  0  0  0  0  0  0  0  0  0  0
   19.6462  -21.8017  -12.0568 C   0  0  0  0  0  0  0  0  0  0  0  0
   21.0018  -22.3232  -12.4315 C   0  0  0  0  0  0  0  0  0  0  0  0
   20.5247  -22.4271  -11.0125 C   0  0  0  0  0  0  0  0  0  0  0  0
   19.5030  -22.2115   -9.9357 N   0  0  0  0  0  0  0  0  0  0  0  0
   16.5377  -20.2704  -12.6996 C   0  0  0  0  0  0  0  0  0  0  0  0
   14.5838  -19.2522  -13.3531 H   0  0  0  0  0  0  0  0  0  0  0  0
   15.3330  -20.3212  -10.0647 H   0  0  0  0  0  0  0  0  0  0  0  0
   16.9899  -21.3211   -8.8994 H   0  0  0  0  0  0  0  0  0  0  0  0
   19.3932  -21.4813  -12.9858 H   0  0  0  0  0  0  0  0  0  0  0  0
   20.2296  -22.0030  -12.3217 H   0  0  0  0  0  0  0  0  0  0  0  0
   18.1305  -20.5266  -14.7362 H   0  0  0  0  0  0  0  0  0  0  0  0
   19.0759  -20.9231  -14.8506 H   0  0  0  0  0  0  0  0  0  0  0  0
   20.5204  -21.7558  -14.0094 H   0  0  0  0  0  0  0  0  0  0  0  0
   21.1772  -22.0734  -13.9001 H   0  0  0  0  0  0  0  0  0  0  0  0
   22.3547  -22.9570  -12.2975 H   0  0  0  0  0  0  0  0  0  0  0  0
   21.6782  -23.0956  -10.3251 H   0  0  0  0  0  0  0  0  0  0  0  0
   19.4313  -22.5076   -8.4670 H   0  0  0  0  0  0  0  0  0  0  0  0
   16.1120  -19.7785  -14.0512 H   0  0  0  0  0  0  0  0  0  0  0  0
  1  2  1  0
  2  3  1  0
  3  4  1  0
  4  5  1  0
  5  6  1  0
  6  7  1  0
  7  8  1  0
  8  9  1  0
  9 10  1  0
 10 11  1  0
 11 12  1  0
  7 13  1  0
 13  2  1  0
 13  3  1  0
  9  5  1  0
 12  5  1  0
 11  9  1  0
  2 14  1  0
  3 15  1  0
  4 16  1  0
  6 17  1  0
  6 18  1  0
  7 19  1  0
  8 20  1  0
  8 21  1  0
 10 22  1  0
 10 23  1  0
 11 24  1  0
 12 25  1  0
 13 26  1  0
M  END
