
     RDKit          2D

 32 35  0  0  0  0  0  0  0  0999 V2000
   20.6951  -20.8312  -11.9346 O   0  0  0  0  0  0  0  0  0  0  0  0
   19.6276  -20.0099  -12.5949 C   0  0  0  0  0  0  0  0  0  0  0  0
   18.5602  -19.1886  -13.2551 O   0  0  0  0  0  0  0  0  0  0  0  0
   17.5659  -19.6619  -12.2366 C   0  0  0  0  0  0  0  0  0  0  0  0
   18.6334  -20.4833  -11.5763 C   0  0  0  0  0  0  0  0  0  0  0  0
   17.6391  -20.9566  -10.5578 C   0  0  0  0  0  0  0  0  0  0  0  0
   16.6449  -21.4300   -9.5393 C   0  0  0  0  0  0  0  0  0  0  0  0
   15.2505  -21.2820   -9.0065 C   0  0  0  0  0  0  0  0  0  0  0  0
   14.6002  -22.0164   -7.8717 C   0  0  0  0  0  0  0  0  0  0  0  0
   15.1835  -23.0801   -6.9895 C   0  0  0  0  0  0  0  0  0  0  0  0
   16.5613  -23.6721   -7.0242 C   0  0  0  0  0  0  0  0  0  0  0  0
   16.0700  -24.4955   -5.8707 F   0  0  0  0  0  0  0  0  0  0  0  0
   17.6960  -23.3467   -7.9497 C   0  0  0  0  0  0  0  0  0  0  0  0
   17.7332  -22.3488   -9.0691 C   0  0  0  0  0  0  0  0  0  0  0  0
   15.7051  -20.4404  -10.1619 C   0  0  0  0  0  0  0  0  0  0  0  0
   22.0380  -20.9796  -12.5863 H   0  0  0  0  0  0  0  0  0  0  0  0
   20.6219  -19.5365  -13.6134 H   0  0  0  0  0  0  0  0  0  0  0  0
   16.4985  -18.8406  -12.8969 H   0  0  0  0  0  0  0  0  0  0  0  0
   16.9064  -19.8802  -11.6873 H   0  0  0  0  0  0  0  0  0  0  0  0
   19.7008  -21.3046  -10.9161 H   0  0  0  0  0  0  0  0  0  0  0  0
   16.9101  -20.7844  -11.0305 H   0  0  0  0  0  0  0  0  0  0  0  0
   18.6392  -21.1929   -9.9095 H   0  0  0  0  0  0  0  0  0  0  0  0
   13.9406  -20.5642   -9.1444 H   0  0  0  0  0  0  0  0  0  0  0  0
   13.5118  -21.0976   -8.3420 H   0  0  0  0  0  0  0  0  0  0  0  0
   13.3694  -22.2155   -7.0377 H   0  0  0  0  0  0  0  0  0  0  0  0
   13.8337  -23.0621   -6.3355 H   0  0  0  0  0  0  0  0  0  0  0  0
   14.9733  -24.0243   -5.8430 H   0  0  0  0  0  0  0  0  0  0  0  0
   17.5300  -24.6504   -6.4286 H   0  0  0  0  0  0  0  0  0  0  0  0
   18.4331  -24.3914   -7.1653 H   0  0  0  0  0  0  0  0  0  0  0  0
   19.0904  -23.4946   -8.4826 H   0  0  0  0  0  0  0  0  0  0  0  0
   18.8336  -22.3807   -9.5832 H   0  0  0  0  0  0  0  0  0  0  0  0
   15.4250  -19.3831  -11.1883 H   0  0  0  0  0  0  0  0  0  0  0  0
  1  2  1  0
  2  3  1  0
  3  4  1  0
  4  5  1  0
  5  6  1  0
  6  7  1  0
  7  8  1  0
  8  9  1  0
  9 10  1  0
 10 11  1  0
 11 12  1  0
 11 13  1  0
 13 14  1  0
 14 15  1  0
  5  2  1  0
 14  7  1  0
 15  7  1  0
 15  8  1  0
  1 16  1  0
  2 17  1  0
  4 18  1  0
  4 19  1  0
  5 20  1  0
  6 21  1  0
  6 22  1  0
  8 23  1  0
  9 24  1  0
  9 25  1  0
 10 26  1  0
 10 27  1  0
 11 28  1  0
 13 29  1  0
 13 30  1  0
 14 31  1  0
 15 32  1  0
M  END
