
     RDKit          2D

 64 71  0  0  0  0  0  0  0  0999 V2000
   28.7407  -21.4020  -11.5303 C   0  0  0  0  0  0  0  0  0  0  0  0
   27.7710  -21.8498  -10.4771 C   0  0  0  0  0  0  0  0  0  0  0  0
   26.7342  -21.4301  -11.4765 C   0  0  0  0  0  0  0  0  0  0  0  0
   25.3829  -21.6867  -10.8781 C   0  0  0  0  0  0  0  0  0  0  0  0
   25.5846  -22.2648   -9.5088 C   0  0  0  0  0  0  0  0  0  0  0  0
   27.0605  -22.3656   -9.2610 C   0  0  0  0  0  0  0  0  0  0  0  0
   24.1965  -22.0466  -10.0339 C   0  0  0  0  0  0  0  0  0  0  0  0
   23.3955  -22.5422   -8.8664 C   0  0  0  0  0  0  0  0  0  0  0  0
   23.0866  -21.6564  -10.9643 C   0  0  0  0  0  0  0  0  0  0  0  0
   21.9767  -21.2661  -11.8948 C   0  0  0  0  0  0  0  0  0  0  0  0
   21.1757  -21.7616  -10.7274 O   0  0  0  0  0  0  0  0  0  0  0  0
   19.6769  -21.7419  -10.7837 C   0  0  0  0  0  0  0  0  0  0  0  0
   18.1782  -21.7221  -10.8399 C   0  0  0  0  0  0  0  0  0  0  0  0
   16.7901  -21.5039  -11.3650 N   0  0  0  0  0  0  0  0  0  0  0  0
   15.6037  -21.8639  -10.5206 C   0  0  0  0  0  0  0  0  0  0  0  0
   14.4173  -22.2239   -9.6764 C   0  0  0  0  0  0  0  0  0  0  0  0
   14.7293  -22.7944   -8.3247 N   0  0  0  0  0  0  0  0  0  0  0  0
   13.9219  -23.3202   -7.0856 C   0  0  0  0  0  0  0  0  0  0  0  0
   14.8397  -23.7800   -5.9918 O   0  0  0  0  0  0  0  0  0  0  0  0
   12.4226  -23.3412   -7.0454 C   0  0  0  0  0  0  0  0  0  0  0  0
   11.9163  -22.7927   -8.3464 C   0  0  0  0  0  0  0  0  0  0  0  0
   13.1027  -22.4327   -9.1907 C   0  0  0  0  0  0  0  0  0  0  0  0
   13.6833  -22.8522   -8.1945 C   0  0  0  0  0  0  0  0  0  0  0  0
   11.7146  -22.2146   -9.7157 C   0  0  0  0  0  0  0  0  0  0  0  0
   13.0756  -21.9659  -10.2955 N   0  0  0  0  0  0  0  0  0  0  0  0
   18.9790  -21.2265  -12.0074 N   0  0  0  0  0  0  0  0  0  0  0  0
   19.7800  -20.7310  -13.1748 C   0  0  0  0  0  0  0  0  0  0  0  0
   18.5118  -20.4220  -13.9138 O   0  0  0  0  0  0  0  0  0  0  0  0
   20.5810  -20.2354  -14.3422 C   0  0  0  0  0  0  0  0  0  0  0  0
   21.2788  -20.7507  -13.1185 C   0  0  0  0  0  0  0  0  0  0  0  0
   29.7103  -20.9543  -12.5837 H   0  0  0  0  0  0  0  0  0  0  0  0
   27.5962  -21.0264  -12.4243 H   0  0  0  0  0  0  0  0  0  0  0  0
   29.4071  -21.5712  -11.1271 H   0  0  0  0  0  0  0  0  0  0  0  0
   29.0106  -22.1758   -9.6979 H   0  0  0  0  0  0  0  0  0  0  0  0
   25.9455  -20.9352  -12.6525 H   0  0  0  0  0  0  0  0  0  0  0  0
   27.3005  -21.2104  -11.9928 H   0  0  0  0  0  0  0  0  0  0  0  0
   24.7555  -21.1577  -12.1337 H   0  0  0  0  0  0  0  0  0  0  0  0
   25.3429  -22.8417   -8.1454 H   0  0  0  0  0  0  0  0  0  0  0  0
   28.4486  -22.5838   -8.7360 H   0  0  0  0  0  0  0  0  0  0  0  0
   26.6402  -22.9271   -7.9351 H   0  0  0  0  0  0  0  0  0  0  0  0
   22.5946  -23.0377   -7.6990 H   0  0  0  0  0  0  0  0  0  0  0  0
   22.0722  -22.6123   -9.5693 H   0  0  0  0  0  0  0  0  0  0  0  0
   24.5235  -22.5928   -7.8790 H   0  0  0  0  0  0  0  0  0  0  0  0
   21.9498  -22.0184  -10.0550 H   0  0  0  0  0  0  0  0  0  0  0  0
   23.9527  -21.1992  -12.1005 H   0  0  0  0  0  0  0  0  0  0  0  0
   23.1631  -20.9060  -12.7391 H   0  0  0  0  0  0  0  0  0  0  0  0
   19.3720  -21.1708  -12.1368 H   0  0  0  0  0  0  0  0  0  0  0  0
   17.8592  -22.2934   -9.4902 H   0  0  0  0  0  0  0  0  0  0  0  0
   16.5884  -20.9257  -12.7343 H   0  0  0  0  0  0  0  0  0  0  0  0
   14.6858  -21.4048  -11.6147 H   0  0  0  0  0  0  0  0  0  0  0  0
   16.5214  -22.3230   -9.4267 H   0  0  0  0  0  0  0  0  0  0  0  0
   14.2712  -24.3217   -4.7138 H   0  0  0  0  0  0  0  0  0  0  0  0
   12.6242  -23.9195   -5.6760 H   0  0  0  0  0  0  0  0  0  0  0  0
   10.9654  -23.4831   -6.7189 H   0  0  0  0  0  0  0  0  0  0  0  0
   10.4591  -22.9346   -8.0200 H   0  0  0  0  0  0  0  0  0  0  0  0
   14.1117  -21.9984  -10.2120 H   0  0  0  0  0  0  0  0  0  0  0  0
   14.7120  -22.1920   -9.7501 H   0  0  0  0  0  0  0  0  0  0  0  0
   15.7302  -22.9769   -7.8863 H   0  0  0  0  0  0  0  0  0  0  0  0
   10.7968  -21.7548  -10.8094 H   0  0  0  0  0  0  0  0  0  0  0  0
   13.0976  -21.3820  -11.6770 H   0  0  0  0  0  0  0  0  0  0  0  0
   18.3882  -19.8404  -15.2909 H   0  0  0  0  0  0  0  0  0  0  0  0
   19.6024  -19.7951  -15.3902 H   0  0  0  0  0  0  0  0  0  0  0  0
   21.7674  -19.8754  -15.1865 H   0  0  0  0  0  0  0  0  0  0  0  0
   22.6066  -20.4760  -13.7601 H   0  0  0  0  0  0  0  0  0  0  0  0
  1  2  1  0
  2  3  1  0
  3  4  1  0
  4  5  1  0
  5  6  1  0
  5  7  1  0
  7  8  1  0
  7  9  1  0
  9 10  1  0
 10 11  1  0
 11 12  1  0
 12 13  1  0
 13 14  1  0
 14 15  1  0
 15 16  1  0
 16 17  2  0
 17 18  1  0
 18 19  1  0
 18 20  1  0
 20 21  1  0
 21 22  1  0
 22 23  1  0
 22 24  1  0
 24 25  1  0
 13 26  1  0
 26 27  1  0
 27 28  1  0
 27 29  1  0
 29 30  1  0
  6  2  1  0
 30 10  1  0
  7  4  1  0
 26 12  1  0
 30 27  1  0
 25 16  1  0
 23 18  1  0
 24 21  1  0
  1 31  1  0
  1 32  1  0
  1 33  1  0
  2 34  1  0
  3 35  1  0
  3 36  1  0
  4 37  1  0
  5 38  1  0
  6 39  1  0
  6 40  1  0
  8 41  1  0
  8 42  1  0
  8 43  1  0
  9 44  1  0
  9 45  1  0
 10 46  1  0
 12 47  1  0
 13 48  1  0
 14 49  1  0
 15 50  1  0
 15 51  1  0
 19 52  1  0
 20 53  1  0
 20 54  1  0
 21 55  1  0
 22 56  1  0
 23 57  1  0
 23 58  1  0
 24 59  1  0
 25 60  1  0
 28 61  1  0
 29 62  1  0
 29 63  1  0
 30 64  1  0
M  END
