
     RDKit          2D

 21 20  0  0  0  0  0  0  0  0999 V2000
   16.1589  -18.7540   -4.4481 C   0  0  0  0  0  0  0  0  0  0  0  0
   16.0912  -19.0511   -5.9169 C   0  0  0  0  0  0  0  0  0  0  0  0
   16.0234  -19.3482   -7.3856 C   0  0  0  0  0  0  0  0  0  0  0  0
   15.6986  -17.9100   -7.6614 Br  0  0  0  0  0  0  0  0  0  0  0  0
   15.9556  -19.6453   -8.8543 C   0  0  0  0  0  0  0  0  0  0  0  0
   15.6300  -18.2073   -9.1301 O   0  0  0  0  0  0  0  0  0  0  0  0
   15.8878  -19.9423  -10.3230 C   0  0  0  0  0  0  0  0  0  0  0  0
   15.5724  -18.8454  -11.2963 O   0  0  0  0  0  0  0  0  0  0  0  0
   16.1354  -21.3363  -10.8184 C   0  0  0  0  0  0  0  0  0  0  0  0
   16.3830  -22.7303  -11.3139 O   0  0  0  0  0  0  0  0  0  0  0  0
   16.2267  -18.4569   -2.9794 H   0  0  0  0  0  0  0  0  0  0  0  0
   16.4895  -20.1909   -4.1727 H   0  0  0  0  0  0  0  0  0  0  0  0
   15.8284  -17.3171   -4.7235 H   0  0  0  0  0  0  0  0  0  0  0  0
   16.4183  -20.4888   -5.6412 H   0  0  0  0  0  0  0  0  0  0  0  0
   15.7640  -17.6134   -6.1925 H   0  0  0  0  0  0  0  0  0  0  0  0
   16.3481  -20.7863   -7.1097 H   0  0  0  0  0  0  0  0  0  0  0  0
   16.2812  -21.0833   -8.5785 H   0  0  0  0  0  0  0  0  0  0  0  0
   15.1091  -17.8012  -10.4769 H   0  0  0  0  0  0  0  0  0  0  0  0
   15.9166  -20.8741  -12.2285 H   0  0  0  0  0  0  0  0  0  0  0  0
   16.3543  -21.7986   -9.4083 H   0  0  0  0  0  0  0  0  0  0  0  0
   16.6984  -23.8273  -10.3406 H   0  0  0  0  0  0  0  0  0  0  0  0
  1  2  1  0
  2  3  1  0
  3  4  1  0
  3  5  1  0
  5  6  1  0
  5  7  1  0
  7  8  2  0
  7  9  1  0
  9 10  1  0
  1 11  1  0
  1 12  1  0
  1 13  1  0
  2 14  1  0
  2 15  1  0
  3 16  1  0
  5 17  1  0
  6 18  1  0
  9 19  1  0
  9 20  1  0
 10 21  1  0
M  END
