
     RDKit          2D

 62 75  0  0  0  0  0  0  0  0999 V2000
   -3.3315   28.2191    4.4819 C   0  0  0  0  0  0  0  0  0  0  0  0
   -2.6426   27.5719    4.0954 C   0  0  0  0  0  0  0  0  0  0  0  0
   -1.8667   26.4554    3.6790 C   0  0  0  0  0  0  0  0  0  0  0  0
   -1.9262   27.9538    3.6421 C   0  0  0  0  0  0  0  0  0  0  0  0
   -2.1760   29.4307    3.7217 C   0  0  0  0  0  0  0  0  0  0  0  0
   -0.9614   28.9127    3.0100 C   0  0  0  0  0  0  0  0  0  0  0  0
    0.3011   28.6101    2.2587 C   0  0  0  0  0  0  0  0  0  0  0  0
    0.9739   29.8660    1.7893 C   0  0  0  0  0  0  0  0  0  0  0  0
    1.5834   28.5297    1.4846 C   0  0  0  0  0  0  0  0  0  0  0  0
    0.9107   27.2739    1.9539 C   0  0  0  0  0  0  0  0  0  0  0  0
    0.4082   25.9101    2.3253 C   0  0  0  0  0  0  0  0  0  0  0  0
   -0.8279   25.5459    3.0930 C   0  0  0  0  0  0  0  0  0  0  0  0
   -1.2225   24.1320    3.4013 C   0  0  0  0  0  0  0  0  0  0  0  0
    0.0319   24.4086    2.6268 C   0  0  0  0  0  0  0  0  0  0  0  0
   -0.7499   23.2439    3.1579 N   0  0  0  0  0  0  0  0  0  0  0  0
   -4.1229   25.1744    5.1104 C   0  0  0  0  0  0  0  0  0  0  0  0
   -3.7247   23.7385    4.9387 C   0  0  0  0  0  0  0  0  0  0  0  0
   -3.6557   22.2404    4.9699 C   0  0  0  0  0  0  0  0  0  0  0  0
   -4.7996   22.9524    5.6292 C   0  0  0  0  0  0  0  0  0  0  0  0
   -5.5701   21.7773    6.1540 C   0  0  0  0  0  0  0  0  0  0  0  0
   -6.6450   20.9911    6.8445 C   0  0  0  0  0  0  0  0  0  0  0  0
   -6.7139   22.4893    6.8133 C   0  0  0  0  0  0  0  0  0  0  0  0
   -2.5053   24.1676    4.1779 C   0  0  0  0  0  0  0  0  0  0  0  0
   -3.7605   24.5140    4.9227 C   0  0  0  0  0  0  0  0  0  0  0  0
   -4.8766   25.1179    5.5705 C   0  0  0  0  0  0  0  0  0  0  0  0
   -6.1586   25.1012    6.3491 C   0  0  0  0  0  0  0  0  0  0  0  0
   -5.5581   26.4074    5.9211 C   0  0  0  0  0  0  0  0  0  0  0  0
   -4.8524   27.5432    5.4376 C   0  0  0  0  0  0  0  0  0  0  0  0
   -4.2043   28.2077    5.0120 N   0  0  0  0  0  0  0  0  0  0  0  0
   -2.9035   25.6036    4.3496 C   0  0  0  0  0  0  0  0  0  0  0  0
   -2.8566   29.2219    4.1449 H   0  0  0  0  0  0  0  0  0  0  0  0
   -3.7047   30.2447    4.6096 H   0  0  0  0  0  0  0  0  0  0  0  0
   -0.8566   27.7709    3.0021 H   0  0  0  0  0  0  0  0  0  0  0  0
   -2.2883   28.3465    3.8427 H   0  0  0  0  0  0  0  0  0  0  0  0
   -3.1997   27.8103    4.4218 H   0  0  0  0  0  0  0  0  0  0  0  0
   -3.3831   29.9733    4.4277 H   0  0  0  0  0  0  0  0  0  0  0  0
   -1.9803   30.9056    3.5311 H   0  0  0  0  0  0  0  0  0  0  0  0
   -0.6405   30.3539    2.7451 H   0  0  0  0  0  0  0  0  0  0  0  0
    0.0151   30.8895    2.3212 H   0  0  0  0  0  0  0  0  0  0  0  0
    1.9796   30.7663    1.1352 H   0  0  0  0  0  0  0  0  0  0  0  0
    2.8657   28.4492    0.7105 H   0  0  0  0  0  0  0  0  0  0  0  0
    2.0502   26.5521    1.2977 H   0  0  0  0  0  0  0  0  0  0  0  0
    1.6707   25.6076    1.5740 H   0  0  0  0  0  0  0  0  0  0  0  0
    0.7759   24.4639    2.1726 H   0  0  0  0  0  0  0  0  0  0  0  0
   -1.5528   22.6940    3.6718 H   0  0  0  0  0  0  0  0  0  0  0  0
   -0.7623   21.7461    3.2384 H   0  0  0  0  0  0  0  0  0  0  0  0
   -2.3822   22.0225    4.2078 H   0  0  0  0  0  0  0  0  0  0  0  0
   -3.8766   20.7711    5.1755 H   0  0  0  0  0  0  0  0  0  0  0  0
   -5.7835   23.9427    6.1779 H   0  0  0  0  0  0  0  0  0  0  0  0
   -4.8146   20.5441    5.7556 H   0  0  0  0  0  0  0  0  0  0  0  0
   -6.1420   19.5980    6.6071 H   0  0  0  0  0  0  0  0  0  0  0  0
   -7.8944   20.6889    7.6173 H   0  0  0  0  0  0  0  0  0  0  0  0
   -7.9875   22.7072    7.5754 H   0  0  0  0  0  0  0  0  0  0  0  0
   -6.6487   23.9836    6.7009 H   0  0  0  0  0  0  0  0  0  0  0  0
   -5.0194   24.2632    5.6987 H   0  0  0  0  0  0  0  0  0  0  0  0
   -5.4408   26.4802    5.8464 H   0  0  0  0  0  0  0  0  0  0  0  0
   -6.6375   23.7254    6.7067 H   0  0  0  0  0  0  0  0  0  0  0  0
   -7.3793   25.5981    7.0655 H   0  0  0  0  0  0  0  0  0  0  0  0
   -6.8177   26.7282    6.6697 H   0  0  0  0  0  0  0  0  0  0  0  0
   -5.9320   29.2556    6.0092 H   0  0  0  0  0  0  0  0  0  0  0  0
   -6.6636   27.8782    6.5202 H   0  0  0  0  0  0  0  0  0  0  0  0
   -4.9116   30.2647    5.3409 H   0  0  0  0  0  0  0  0  0  0  0  0
  1  2  1  0
  2  3  1  0
  3  4  1  0
  4  5  1  0
  5  6  1  0
  6  7  1  0
  7  8  1  0
  8  9  1  0
  9 10  1  0
 10 11  1  0
 11 12  1  0
 12 13  1  0
 13 14  1  0
 14 15  1  0
 15 16  1  0
 16 17  1  0
 17 18  1  0
 18 19  1  0
 19 20  1  0
 20 21  1  0
 21 22  1  0
 17 23  1  0
 23 24  1  0
 24 25  1  0
 25 26  1  0
 26 27  1  0
 27 28  1  0
 28 29  1  0
 24 30  1  0
 29  1  1  0
 12  3  1  0
 23 13  1  0
 27 25  1  0
 30  3  1  0
  6  4  1  0
  9  7  1  0
 14 12  1  0
 30 16  1  0
 10  7  1  0
 16 14  1  0
 19 17  1  0
 22 20  1  0
 30 23  1  0
  1 31  1  0
  1 32  1  0
  2 33  1  0
  2 34  1  0
  4 35  1  0
  5 36  1  0
  5 37  1  0
  6 38  1  0
  8 39  1  0
  8 40  1  0
  9 41  1  0
 10 42  1  0
 11 43  1  0
 11 44  1  0
 13 45  1  0
 15 46  1  0
 18 47  1  0
 18 48  1  0
 19 49  1  0
 20 50  1  0
 21 51  1  0
 21 52  1  0
 22 53  1  0
 22 54  1  0
 24 55  1  0
 25 56  1  0
 26 57  1  0
 26 58  1  0
 27 59  1  0
 28 60  1  0
 28 61  1  0
 29 62  1  0
M  END
