
     RDKit          2D

 19 20  0  0  0  0  0  0  0  0999 V2000
   -1.7647   30.5838    6.2818 C   0  0  0  0  0  0  0  0  0  0  0  0
   -2.6449   29.6632    5.4894 C   0  0  0  0  0  0  0  0  0  0  0  0
   -3.1230   28.3770    6.0950 C   0  0  0  0  0  0  0  0  0  0  0  0
   -3.3192   27.2778    7.0967 O   0  0  0  0  0  0  0  0  0  0  0  0
   -4.1613   26.0866    6.7477 C   0  0  0  0  0  0  0  0  0  0  0  0
   -4.3575   24.9874    7.7494 O   0  0  0  0  0  0  0  0  0  0  0  0
   -4.8073   25.9945    5.3971 C   0  0  0  0  0  0  0  0  0  0  0  0
   -5.4532   25.9025    4.0464 C   0  0  0  0  0  0  0  0  0  0  0  0
   -4.6111   27.0937    4.3954 C   0  0  0  0  0  0  0  0  0  0  0  0
   -4.3514   26.5123    5.7535 O   0  0  0  0  0  0  0  0  0  0  0  0
   -3.7690   28.2849    4.7444 O   0  0  0  0  0  0  0  0  0  0  0  0
   -1.2865   31.8701    5.6762 H   0  0  0  0  0  0  0  0  0  0  0  0
   -1.3627   30.2180    7.6799 H   0  0  0  0  0  0  0  0  0  0  0  0
   -3.0468   30.0290    4.0913 H   0  0  0  0  0  0  0  0  0  0  0  0
   -2.3110   28.9157    7.2354 H   0  0  0  0  0  0  0  0  0  0  0  0
   -5.4810   24.6708    5.6064 H   0  0  0  0  0  0  0  0  0  0  0  0
   -6.1558   24.5842    4.1830 H   0  0  0  0  0  0  0  0  0  0  0  0
   -5.8552   26.2683    2.6483 H   0  0  0  0  0  0  0  0  0  0  0  0
   -4.8677   25.2110    6.2922 H   0  0  0  0  0  0  0  0  0  0  0  0
  1  2  2  3
  2  3  1  0
  3  4  1  0
  4  5  1  0
  5  6  2  0
  5  7  1  0
  7  8  1  0
  8  9  1  0
  9 10  1  0
  9 11  1  0
 11  3  1  0
  9  7  1  0
  1 12  1  0
  1 13  1  0
  2 14  1  0
  3 15  1  0
  7 16  1  0
  8 17  1  0
  8 18  1  0
 10 19  1  0
M  END
