
     RDKit          2D

105115  0  0  0  0  0  0  0  0999 V2000
   24.0943  -20.3024  -13.0074 C   0  0  0  0  0  0  0  0  0  0  0  0
   23.5808  -20.7732  -14.3358 C   0  0  0  0  0  0  0  0  0  0  0  0
   23.2449  -19.3114  -14.3472 C   0  0  0  0  0  0  0  0  0  0  0  0
   22.5637  -18.5166  -15.4216 C   0  0  0  0  0  0  0  0  0  0  0  0
   22.0502  -18.9875  -16.7500 C   0  0  0  0  0  0  0  0  0  0  0  0
   21.3871  -18.8078  -18.0834 C   0  0  0  0  0  0  0  0  0  0  0  0
   22.0910  -20.3694  -17.3321 N   0  0  0  0  0  0  0  0  0  0  0  0
   21.4876  -20.5187  -18.6972 C   0  0  0  0  0  0  0  0  0  0  0  0
   20.8842  -20.6680  -20.0623 C   0  0  0  0  0  0  0  0  0  0  0  0
   19.8618  -20.9112  -21.1326 C   0  0  0  0  0  0  0  0  0  0  0  0
   19.4681  -20.9902  -19.6873 C   0  0  0  0  0  0  0  0  0  0  0  0
   18.0131  -21.3254  -19.8317 O   0  0  0  0  0  0  0  0  0  0  0  0
   17.1616  -21.5113  -18.6109 C   0  0  0  0  0  0  0  0  0  0  0  0
   16.3101  -21.6972  -17.3901 C   0  0  0  0  0  0  0  0  0  0  0  0
   15.4055  -21.9142  -18.5668 C   0  0  0  0  0  0  0  0  0  0  0  0
   14.8631  -22.0277  -17.1730 C   0  0  0  0  0  0  0  0  0  0  0  0
   13.6791  -22.2926  -16.2910 C   0  0  0  0  0  0  0  0  0  0  0  0
   13.0292  -22.4312  -14.9461 C   0  0  0  0  0  0  0  0  0  0  0  0
   13.0624  -22.4118  -13.4467 C   0  0  0  0  0  0  0  0  0  0  0  0
   13.7710  -22.2388  -12.1359 C   0  0  0  0  0  0  0  0  0  0  0  0
   12.3240  -22.5693  -11.9188 C   0  0  0  0  0  0  0  0  0  0  0  0
   11.5215  -23.1867  -13.0255 C   0  0  0  0  0  0  0  0  0  0  0  0
   10.8771  -22.8998  -11.7016 C   0  0  0  0  0  0  0  0  0  0  0  0
   10.2327  -22.6129  -10.3779 C   0  0  0  0  0  0  0  0  0  0  0  0
   11.0353  -21.9955   -9.2712 C   0  0  0  0  0  0  0  0  0  0  0  0
   11.6796  -22.2824  -10.5950 C   0  0  0  0  0  0  0  0  0  0  0  0
   14.9927  -21.9518  -11.3144 C   0  0  0  0  0  0  0  0  0  0  0  0
   16.4476  -21.6166  -11.1700 C   0  0  0  0  0  0  0  0  0  0  0  0
   15.7977  -21.7552   -9.8252 C   0  0  0  0  0  0  0  0  0  0  0  0
   16.7759  -20.7735   -9.2513 C   0  0  0  0  0  0  0  0  0  0  0  0
   17.7542  -19.7918   -8.6774 O   0  0  0  0  0  0  0  0  0  0  0  0
   16.1261  -20.9121   -7.9065 C   0  0  0  0  0  0  0  0  0  0  0  0
   15.0742  -21.5230   -7.0288 C   0  0  0  0  0  0  0  0  0  0  0  0
   15.1479  -21.8938   -8.4804 C   0  0  0  0  0  0  0  0  0  0  0  0
   17.8024  -21.3100  -11.7360 C   0  0  0  0  0  0  0  0  0  0  0  0
   18.7469  -21.1022  -12.8827 C   0  0  0  0  0  0  0  0  0  0  0  0
   20.1266  -20.7894  -13.3809 C   0  0  0  0  0  0  0  0  0  0  0  0
   20.0935  -20.8088  -14.8804 O   0  0  0  0  0  0  0  0  0  0  0  0
   18.6825  -21.1399  -15.7945 C   0  0  0  0  0  0  0  0  0  0  0  0
   19.0644  -21.0408  -14.3474 C   0  0  0  0  0  0  0  0  0  0  0  0
   17.6884  -21.3768  -16.8926 C   0  0  0  0  0  0  0  0  0  0  0  0
   19.0433  -21.0702  -17.4587 C   0  0  0  0  0  0  0  0  0  0  0  0
   22.6555  -21.6217  -16.7294 C   0  0  0  0  0  0  0  0  0  0  0  0
   23.3185  -21.8014  -15.3960 C   0  0  0  0  0  0  0  0  0  0  0  0
   24.6078  -19.8315  -11.6791 H   0  0  0  0  0  0  0  0  0  0  0  0
   24.5527  -21.6951  -12.6909 H   0  0  0  0  0  0  0  0  0  0  0  0
   23.8858  -19.5372  -13.0884 H   0  0  0  0  0  0  0  0  0  0  0  0
   24.1896  -21.9225  -13.5884 H   0  0  0  0  0  0  0  0  0  0  0  0
   23.3593  -18.2135  -13.5700 H   0  0  0  0  0  0  0  0  0  0  0  0
   23.6196  -19.3118  -13.5446 H   0  0  0  0  0  0  0  0  0  0  0  0
   22.1122  -17.1155  -15.7099 H   0  0  0  0  0  0  0  0  0  0  0  0
   22.9019  -17.6241  -14.2645 H   0  0  0  0  0  0  0  0  0  0  0  0
   21.9528  -17.5693  -16.2713 H   0  0  0  0  0  0  0  0  0  0  0  0
   20.7055  -18.4517  -19.3713 H   0  0  0  0  0  0  0  0  0  0  0  0
   21.4142  -20.1794  -18.6901 H   0  0  0  0  0  0  0  0  0  0  0  0
   21.5278  -17.6045  -17.1990 H   0  0  0  0  0  0  0  0  0  0  0  0
   22.7384  -20.2500  -19.4804 H   0  0  0  0  0  0  0  0  0  0  0  0
   20.0469  -20.8353  -18.4246 H   0  0  0  0  0  0  0  0  0  0  0  0
   22.0909  -20.3977  -20.9115 H   0  0  0  0  0  0  0  0  0  0  0  0
   20.7133  -20.7253  -22.3534 H   0  0  0  0  0  0  0  0  0  0  0  0
   18.5436  -21.2190  -21.7788 H   0  0  0  0  0  0  0  0  0  0  0  0
   19.4011  -20.9938  -18.1888 H   0  0  0  0  0  0  0  0  0  0  0  0
   16.0680  -21.0501  -19.5281 H   0  0  0  0  0  0  0  0  0  0  0  0
   18.5382  -21.8951  -18.1552 H   0  0  0  0  0  0  0  0  0  0  0  0
   16.2394  -21.7324  -19.8004 H   0  0  0  0  0  0  0  0  0  0  0  0
   14.1627  -22.2057  -19.3545 H   0  0  0  0  0  0  0  0  0  0  0  0
   13.8281  -22.2737  -18.2305 H   0  0  0  0  0  0  0  0  0  0  0  0
   13.1279  -22.4301  -17.6792 H   0  0  0  0  0  0  0  0  0  0  0  0
   12.2525  -22.6227  -16.6162 H   0  0  0  0  0  0  0  0  0  0  0  0
   11.9119  -22.6954  -15.9115 H   0  0  0  0  0  0  0  0  0  0  0  0
   11.5817  -22.7619  -14.7331 H   0  0  0  0  0  0  0  0  0  0  0  0
   11.6840  -22.7322  -13.9441 H   0  0  0  0  0  0  0  0  0  0  0  0
   11.8760  -22.6773  -12.5680 H   0  0  0  0  0  0  0  0  0  0  0  0
   13.2818  -22.3399  -10.7216 H   0  0  0  0  0  0  0  0  0  0  0  0
   12.2980  -23.4149  -14.2884 H   0  0  0  0  0  0  0  0  0  0  0  0
   10.3544  -23.7755  -13.7612 H   0  0  0  0  0  0  0  0  0  0  0  0
    8.7858  -22.9434  -10.1607 H   0  0  0  0  0  0  0  0  0  0  0  0
    9.9856  -21.9130   -8.2029 H   0  0  0  0  0  0  0  0  0  0  0  0
   12.2024  -21.4067   -8.5356 H   0  0  0  0  0  0  0  0  0  0  0  0
   13.8086  -22.2167  -10.4324 H   0  0  0  0  0  0  0  0  0  0  0  0
   15.0218  -21.9333   -9.8147 H   0  0  0  0  0  0  0  0  0  0  0  0
   17.4416  -21.3797  -10.0719 H   0  0  0  0  0  0  0  0  0  0  0  0
   14.7476  -22.7465  -10.2309 H   0  0  0  0  0  0  0  0  0  0  0  0
   17.6432  -20.4014  -10.4172 H   0  0  0  0  0  0  0  0  0  0  0  0
   17.6736  -19.4127   -7.2283 H   0  0  0  0  0  0  0  0  0  0  0  0
   16.9028  -19.9997   -7.0041 H   0  0  0  0  0  0  0  0  0  0  0  0
   15.4058  -20.8601   -5.7247 H   0  0  0  0  0  0  0  0  0  0  0  0
   13.9071  -22.3642   -6.6040 H   0  0  0  0  0  0  0  0  0  0  0  0
   14.0348  -22.8780   -8.6867 H   0  0  0  0  0  0  0  0  0  0  0  0
   18.1883  -21.2100  -10.2899 H   0  0  0  0  0  0  0  0  0  0  0  0
   19.1808  -20.9896  -11.2386 H   0  0  0  0  0  0  0  0  0  0  0  0
   19.9675  -20.8155  -12.0593 H   0  0  0  0  0  0  0  0  0  0  0  0
   20.6339  -20.6618  -11.9750 H   0  0  0  0  0  0  0  0  0  0  0  0
   21.5786  -20.4546  -13.2085 H   0  0  0  0  0  0  0  0  0  0  0  0
   20.0946  -20.8188  -16.1851 H   0  0  0  0  0  0  0  0  0  0  0  0
   20.3749  -20.7348  -13.6849 H   0  0  0  0  0  0  0  0  0  0  0  0
   20.4208  -20.7339  -14.9096 H   0  0  0  0  0  0  0  0  0  0  0  0
   18.0099  -21.3146  -18.3565 H   0  0  0  0  0  0  0  0  0  0  0  0
   20.2250  -20.8059  -18.3440 H   0  0  0  0  0  0  0  0  0  0  0  0
   18.4939  -21.2072  -18.8477 H   0  0  0  0  0  0  0  0  0  0  0  0
   19.4234  -20.9716  -16.0110 H   0  0  0  0  0  0  0  0  0  0  0  0
   22.9154  -23.0908  -16.8846 H   0  0  0  0  0  0  0  0  0  0  0  0
   22.2021  -22.2587  -18.0096 H   0  0  0  0  0  0  0  0  0  0  0  0
   23.9808  -22.7409  -14.4322 H   0  0  0  0  0  0  0  0  0  0  0  0
   23.4431  -23.2339  -15.8231 H   0  0  0  0  0  0  0  0  0  0  0  0
  1  2  1  0
  2  3  1  0
  3  4  1  0
  4  5  1  0
  5  6  1  0
  5  7  1  0
  7  8  1  0
  8  9  1  0
  9 10  1  0
 10 11  1  0
 11 12  1  0
 12 13  1  0
 13 14  1  0
 14 15  1  0
 15 16  1  0
 16 17  1  0
 17 18  1  0
 18 19  1  0
 19 20  1  0
 20 21  1  0
 21 22  1  0
 22 23  1  0
 23 24  1  0
 24 25  1  0
 25 26  1  0
 20 27  1  0
 27 28  1  0
 28 29  1  0
 29 30  1  0
 30 31  1  0
 30 32  1  0
 32 33  1  0
 33 34  1  0
 28 35  1  0
 35 36  1  0
 36 37  1  0
 37 38  1  0
 38 39  1  0
 39 40  1  0
 39 41  1  0
 41 42  1  0
  7 43  1  0
 43 44  1  0
 44  2  1  0
 11  9  1  0
 16 14  1  0
 23 21  1  0
 26 24  1  0
 34 29  1  0
 40 36  1  0
 41 14  1  0
 26 21  1  0
 34 32  1  0
 26 23  1  0
  1 45  1  0
  1 46  1  0
  1 47  1  0
  2 48  1  0
  3 49  1  0
  3 50  1  0
  4 51  1  0
  4 52  1  0
  5 53  1  0
  6 54  1  0
  6 55  1  0
  6 56  1  0
  8 57  1  0
  8 58  1  0
  9 59  1  0
 10 60  1  0
 10 61  1  0
 11 62  1  0
 13 63  1  0
 13 64  1  0
 15 65  1  0
 15 66  1  0
 16 67  1  0
 17 68  1  0
 17 69  1  0
 18 70  1  0
 18 71  1  0
 19 72  1  0
 19 73  1  0
 20 74  1  0
 22 75  1  0
 22 76  1  0
 24 77  1  0
 25 78  1  0
 25 79  1  0
 27 80  1  0
 27 81  1  0
 28 82  1  0
 29 83  1  0
 30 84  1  0
 31 85  1  0
 32 86  1  0
 33 87  1  0
 33 88  1  0
 34 89  1  0
 35 90  1  0
 35 91  1  0
 36 92  1  0
 37 93  1  0
 37 94  1  0
 39 95  1  0
 40 96  1  0
 40 97  1  0
 41 98  1  0
 42 99  1  0
 42100  1  0
 42101  1  0
 43102  1  0
 43103  1  0
 44104  1  0
 44105  1  0
M  END
