
     RDKit          2D

109120  0  0  0  0  0  0  0  0999 V2000
    6.6237   26.0803    3.5496 C   0  0  0  0  0  0  0  0  0  0  0  0
    5.3162   25.7891    4.2247 C   0  0  0  0  0  0  0  0  0  0  0  0
    4.0087   25.4980    4.8998 C   0  0  0  0  0  0  0  0  0  0  0  0
    3.3212   24.5840    5.8703 C   0  0  0  0  0  0  0  0  0  0  0  0
    2.0137   24.2929    6.5454 C   0  0  0  0  0  0  0  0  0  0  0  0
    0.5857   24.7357    6.6672 C   0  0  0  0  0  0  0  0  0  0  0  0
    0.7807   23.5480    7.5624 C   0  0  0  0  0  0  0  0  0  0  0  0
    1.8229   22.5651    8.0072 C   0  0  0  0  0  0  0  0  0  0  0  0
    3.2120   21.9992    7.9980 C   0  0  0  0  0  0  0  0  0  0  0  0
    3.8669   22.9323    7.0230 C   0  0  0  0  0  0  0  0  0  0  0  0
    2.1537   21.3753    8.8585 C   0  0  0  0  0  0  0  0  0  0  0  0
    1.6680   20.3562    9.8462 C   0  0  0  0  0  0  0  0  0  0  0  0
    1.8630   19.1685   10.7415 C   0  0  0  0  0  0  0  0  0  0  0  0
    0.5201   19.8314   10.6567 C   0  0  0  0  0  0  0  0  0  0  0  0
    0.3020   18.7143   11.6337 C   0  0  0  0  0  0  0  0  0  0  0  0
   -0.9257   19.9676   11.0326 C   0  0  0  0  0  0  0  0  0  0  0  0
   -2.2102   20.7215   10.8545 C   0  0  0  0  0  0  0  0  0  0  0  0
   -2.9257   21.8536   10.1792 C   0  0  0  0  0  0  0  0  0  0  0  0
   -2.8450   23.0047    9.2208 C   0  0  0  0  0  0  0  0  0  0  0  0
   -2.1295   21.8725    9.8962 C   0  0  0  0  0  0  0  0  0  0  0  0
   -1.9937   23.8093    8.2838 C   0  0  0  0  0  0  0  0  0  0  0  0
   -3.3828   24.3752    8.2930 C   0  0  0  0  0  0  0  0  0  0  0  0
   -4.7719   24.9411    8.3022 C   0  0  0  0  0  0  0  0  0  0  0  0
   -3.8667   23.1749    9.0514 C   0  0  0  0  0  0  0  0  0  0  0  0
   -0.6420   24.0118    7.6656 C   0  0  0  0  0  0  0  0  0  0  0  0
   -1.5836   25.0541    7.1389 C   0  0  0  0  0  0  0  0  0  0  0  0
   -2.8940   24.7683    7.8106 C   0  0  0  0  0  0  0  0  0  0  0  0
   -3.5176   25.9239    7.0855 O   0  0  0  0  0  0  0  0  0  0  0  0
   -2.2072   26.2096    6.4138 C   0  0  0  0  0  0  0  0  0  0  0  0
   -0.7605   25.8792    6.1947 C   0  0  0  0  0  0  0  0  0  0  0  0
   -0.3958   26.9480    5.2074 O   0  0  0  0  0  0  0  0  0  0  0  0
   -0.4173   25.7433    6.1892 C   0  0  0  0  0  0  0  0  0  0  0  0
   -0.6122   26.9310    5.2940 C   0  0  0  0  0  0  0  0  0  0  0  0
   -0.0655   27.8528    4.3645 C   0  0  0  0  0  0  0  0  0  0  0  0
    0.4847   28.8415    3.3797 C   0  0  0  0  0  0  0  0  0  0  0  0
    1.3726   27.7730    3.9455 C   0  0  0  0  0  0  0  0  0  0  0  0
    2.8108   27.6933    3.5265 C   0  0  0  0  0  0  0  0  0  0  0  0
    3.8138   26.6856    4.0045 C   0  0  0  0  0  0  0  0  0  0  0  0
    1.9228   28.7617    2.9607 C   0  0  0  0  0  0  0  0  0  0  0  0
    2.4730   29.7505    1.9759 C   0  0  0  0  0  0  0  0  0  0  0  0
    1.9518   31.1568    1.9542 C   0  0  0  0  0  0  0  0  0  0  0  0
    3.0232   30.7391    0.9911 C   0  0  0  0  0  0  0  0  0  0  0  0
    3.5734   31.7278    0.0063 C   0  0  0  0  0  0  0  0  0  0  0  0
    3.5444   29.3328    1.0128 C   0  0  0  0  0  0  0  0  0  0  0  0
    4.5569   29.4132   -0.0909 C   0  0  0  0  0  0  0  0  0  0  0  0
    7.9311   26.3715    2.8744 H   0  0  0  0  0  0  0  0  0  0  0  0
    7.2537   24.9268    4.2723 H   0  0  0  0  0  0  0  0  0  0  0  0
    5.9935   27.2338    2.8268 H   0  0  0  0  0  0  0  0  0  0  0  0
    5.1375   27.1705    3.6681 H   0  0  0  0  0  0  0  0  0  0  0  0
    5.8263   24.4380    4.6299 H   0  0  0  0  0  0  0  0  0  0  0  0
    5.1321   24.5750    5.2687 H   0  0  0  0  0  0  0  0  0  0  0  0
    4.7491   24.1411    5.7485 H   0  0  0  0  0  0  0  0  0  0  0  0
    4.0186   23.4467    6.5558 H   0  0  0  0  0  0  0  0  0  0  0  0
    2.8814   23.2154    7.1253 H   0  0  0  0  0  0  0  0  0  0  0  0
    1.6558   23.2215    7.5323 H   0  0  0  0  0  0  0  0  0  0  0  0
   -0.7888   24.5874    7.2493 H   0  0  0  0  0  0  0  0  0  0  0  0
    2.0759   23.8611    6.8737 H   0  0  0  0  0  0  0  0  0  0  0  0
    2.7056   23.3457    7.0790 H   0  0  0  0  0  0  0  0  0  0  0  0
    4.3737   21.1093    8.3274 H   0  0  0  0  0  0  0  0  0  0  0  0
    4.6749   23.7682    6.0751 H   0  0  0  0  0  0  0  0  0  0  0  0
    5.1620   22.1931    7.1855 H   0  0  0  0  0  0  0  0  0  0  0  0
    2.6613   23.7796    6.7428 H   0  0  0  0  0  0  0  0  0  0  0  0
    3.4560   20.6466    9.0102 H   0  0  0  0  0  0  0  0  0  0  0  0
    3.0826   19.8630    9.7696 H   0  0  0  0  0  0  0  0  0  0  0  0
    3.3131   18.8838   10.4843 H   0  0  0  0  0  0  0  0  0  0  0  0
    1.7296   18.0292   11.7080 H   0  0  0  0  0  0  0  0  0  0  0  0
    0.0839   17.5972   12.6107 H   0  0  0  0  0  0  0  0  0  0  0  0
   -1.1435   18.8415   12.0137 H   0  0  0  0  0  0  0  0  0  0  0  0
    1.7001   18.1716   11.6059 H   0  0  0  0  0  0  0  0  0  0  0  0
   -0.8477   18.7903   11.9588 H   0  0  0  0  0  0  0  0  0  0  0  0
   -2.0971   19.4718   11.8275 H   0  0  0  0  0  0  0  0  0  0  0  0
   -3.2201   20.0499   11.7373 H   0  0  0  0  0  0  0  0  0  0  0  0
   -3.8848   21.1361   11.0821 H   0  0  0  0  0  0  0  0  0  0  0  0
   -4.3256   22.3911   10.2150 H   0  0  0  0  0  0  0  0  0  0  0  0
   -4.2894   23.3550    9.4231 H   0  0  0  0  0  0  0  0  0  0  0  0
   -1.1703   22.5900    8.9933 H   0  0  0  0  0  0  0  0  0  0  0  0
   -0.7865   21.2096    9.9810 H   0  0  0  0  0  0  0  0  0  0  0  0
   -2.4002   24.9956    7.4608 H   0  0  0  0  0  0  0  0  0  0  0  0
   -3.2493   25.6767    7.5593 H   0  0  0  0  0  0  0  0  0  0  0  0
   -6.1611   25.5070    8.3115 H   0  0  0  0  0  0  0  0  0  0  0  0
   -4.5220   26.0552    7.3294 H   0  0  0  0  0  0  0  0  0  0  0  0
   -4.8755   26.1269    7.3895 H   0  0  0  0  0  0  0  0  0  0  0  0
   -4.5163   22.0527    9.8053 H   0  0  0  0  0  0  0  0  0  0  0  0
   -5.1865   23.8829    8.9681 H   0  0  0  0  0  0  0  0  0  0  0  0
   -5.3045   23.5904    9.1530 H   0  0  0  0  0  0  0  0  0  0  0  0
   -0.0644   24.9866    6.6827 H   0  0  0  0  0  0  0  0  0  0  0  0
   -4.3164   24.7708    8.2869 H   0  0  0  0  0  0  0  0  0  0  0  0
   -2.6061   23.5780    8.6768 H   0  0  0  0  0  0  0  0  0  0  0  0
   -2.4703   27.3997    5.5395 H   0  0  0  0  0  0  0  0  0  0  0  0
    0.6880   25.5689    5.9588 H   0  0  0  0  0  0  0  0  0  0  0  0
    1.0030   27.0287    4.6719 H   0  0  0  0  0  0  0  0  0  0  0  0
   -1.5172   25.1635    7.0281 H   0  0  0  0  0  0  0  0  0  0  0  0
   -1.8030   26.3176    6.1906 H   0  0  0  0  0  0  0  0  0  0  0  0
   -2.0586   27.0729    5.6654 H   0  0  0  0  0  0  0  0  0  0  0  0
   -1.7357   27.8540    4.9250 H   0  0  0  0  0  0  0  0  0  0  0  0
   -1.3131   27.4622    5.0999 H   0  0  0  0  0  0  0  0  0  0  0  0
   -0.4031   29.9099    2.8139 H   0  0  0  0  0  0  0  0  0  0  0  0
    4.2547   27.5723    3.1389 H   0  0  0  0  0  0  0  0  0  0  0  0
    4.5013   27.5996    3.0340 H   0  0  0  0  0  0  0  0  0  0  0  0
    5.2619   26.5233    3.6490 H   0  0  0  0  0  0  0  0  0  0  0  0
    0.9393   31.0763    3.0580 H   0  0  0  0  0  0  0  0  0  0  0  0
    1.7822   32.5911    1.5492 H   0  0  0  0  0  0  0  0  0  0  0  0
    4.1236   32.7164   -0.9785 H   0  0  0  0  0  0  0  0  0  0  0  0
    4.5505   30.8020   -0.6556 H   0  0  0  0  0  0  0  0  0  0  0  0
    2.6565   32.7819    0.5524 H   0  0  0  0  0  0  0  0  0  0  0  0
    3.7140   27.8984    1.4178 H   0  0  0  0  0  0  0  0  0  0  0  0
    5.5695   29.4936   -1.1948 H   0  0  0  0  0  0  0  0  0  0  0  0
    4.2104   30.8570   -0.3038 H   0  0  0  0  0  0  0  0  0  0  0  0
    5.0244   27.9900   -0.0143 H   0  0  0  0  0  0  0  0  0  0  0  0
  1  2  1  0
  2  3  1  0
  3  4  1  0
  4  5  1  0
  5  6  1  0
  6  7  1  0
  7  8  1  0
  8  9  1  0
  9 10  1  0
  9 11  1  0
 11 12  1  0
 12 13  1  0
 13 14  1  0
 14 15  1  0
 14 16  1  0
 16 17  1  0
 17 18  1  0
 18 19  1  0
 19 20  1  0
 19 21  1  0
 21 22  1  0
 22 23  1  0
 22 24  1  0
 21 25  1  0
 25 26  1  0
 26 27  1  0
 27 28  1  0
 28 29  1  0
 29 30  1  0
 30 31  1  0
  6 32  1  0
 32 33  1  0
 33 34  1  0
 34 35  1  0
 35 36  1  0
 36 37  1  0
 37 38  1  0
 37 39  1  0
 39 40  1  0
 40 41  1  0
 41 42  1  0
 42 43  1  0
 42 44  1  0
 44 45  1  0
 38  3  1  0
 42 40  1  0
 25  7  1  0
 29 26  1  0
 36 34  1  0
 44 40  1  0
 11  8  1  0
 14 12  1  0
 20 17  1  0
 30 26  1  0
 39 35  1  0
 39 36  1  0
  1 46  1  0
  1 47  1  0
  1 48  1  0
  2 49  1  0
  2 50  1  0
  3 51  1  0
  4 52  1  0
  4 53  1  0
  5 54  1  0
  5 55  1  0
  6 56  1  0
  7 57  1  0
  8 58  1  0
  9 59  1  0
 10 60  1  0
 10 61  1  0
 10 62  1  0
 11 63  1  0
 12 64  1  0
 13 65  1  0
 13 66  1  0
 15 67  1  0
 15 68  1  0
 15 69  1  0
 16 70  1  0
 16 71  1  0
 17 72  1  0
 18 73  1  0
 18 74  1  0
 19 75  1  0
 20 76  1  0
 20 77  1  0
 21 78  1  0
 22 79  1  0
 23 80  1  0
 23 81  1  0
 23 82  1  0
 24 83  1  0
 24 84  1  0
 24 85  1  0
 25 86  1  0
 27 87  1  0
 27 88  1  0
 29 89  1  0
 30 90  1  0
 31 91  1  0
 32 92  1  0
 32 93  1  0
 33 94  1  0
 33 95  1  0
 34 96  1  0
 35 97  1  0
 37 98  1  0
 38 99  1  0
 38100  1  0
 41101  1  0
 41102  1  0
 43103  1  0
 43104  1  0
 43105  1  0
 44106  1  0
 45107  1  0
 45108  1  0
 45109  1  0
M  END
