
     RDKit          2D

 21 23  0  0  0  0  0  0  0  0999 V2000
    2.4752   27.2674    2.7314 O   0  0  0  0  0  0  0  0  0  0  0  0
    1.1098   26.8759    3.2137 C   0  0  0  0  0  0  0  0  0  0  0  0
   -0.2555   26.4845    3.6960 C   0  0  0  0  0  0  0  0  0  0  0  0
   -0.5091   27.8989    4.1262 O   0  0  0  0  0  0  0  0  0  0  0  0
   -1.6209   26.0931    4.1782 C   0  0  0  0  0  0  0  0  0  0  0  0
   -2.1070   27.4177    4.6872 O   0  0  0  0  0  0  0  0  0  0  0  0
   -2.9904   26.2089    4.7791 C   0  0  0  0  0  0  0  0  0  0  0  0
   -4.2538   26.6993    5.4218 O   0  0  0  0  0  0  0  0  0  0  0  0
   -4.8298   25.3165    5.3447 C   0  0  0  0  0  0  0  0  0  0  0  0
   -4.6969   23.8736    4.9566 C   0  0  0  0  0  0  0  0  0  0  0  0
   -3.5664   24.8260    4.7020 C   0  0  0  0  0  0  0  0  0  0  0  0
    2.9389   28.6877    2.8643 H   0  0  0  0  0  0  0  0  0  0  0  0
    0.8592   28.2888    3.6510 H   0  0  0  0  0  0  0  0  0  0  0  0
    1.3605   25.4632    2.7764 H   0  0  0  0  0  0  0  0  0  0  0  0
   -0.0019   25.0701    3.2658 H   0  0  0  0  0  0  0  0  0  0  0  0
   -1.6665   28.5995    4.7740 H   0  0  0  0  0  0  0  0  0  0  0  0
   -1.6089   24.6325    3.8367 H   0  0  0  0  0  0  0  0  0  0  0  0
   -6.1993   25.4323    5.9456 H   0  0  0  0  0  0  0  0  0  0  0  0
   -6.0351   23.3605    5.3994 H   0  0  0  0  0  0  0  0  0  0  0  0
   -4.0993   22.6091    4.4147 H   0  0  0  0  0  0  0  0  0  0  0  0
   -2.4950   23.9944    4.0612 H   0  0  0  0  0  0  0  0  0  0  0  0
  1  2  1  0
  2  3  1  0
  3  4  1  0
  3  5  1  0
  5  6  1  0
  6  7  1  0
  7  8  1  0
  8  9  1  0
  9 10  1  0
 10 11  1  0
  7  5  1  0
 11  9  1  0
 11  7  1  0
  1 12  1  0
  2 13  1  0
  2 14  1  0
  3 15  1  0
  4 16  1  0
  5 17  1  0
  9 18  1  0
 10 19  1  0
 10 20  1  0
 11 21  1  0
M  END
