
     RDKit          2D

 34 39  0  0  0  0  0  0  0  0999 V2000
   17.2509  -21.0898  -15.2793 C   0  0  0  0  0  0  0  0  0  0  0  0
   16.8985  -19.6340  -15.1999 C   0  0  0  0  0  0  0  0  0  0  0  0
   17.2529  -18.8121  -16.4037 C   0  0  0  0  0  0  0  0  0  0  0  0
   17.0347  -17.3457  -16.6322 C   0  0  0  0  0  0  0  0  0  0  0  0
   16.4082  -16.3391  -15.7132 N   0  0  0  0  0  0  0  0  0  0  0  0
   15.8452  -16.5502  -14.3390 C   0  0  0  0  0  0  0  0  0  0  0  0
   15.6270  -15.0838  -14.5675 C   0  0  0  0  0  0  0  0  0  0  0  0
   14.9747  -14.2484  -13.5062 O   0  0  0  0  0  0  0  0  0  0  0  0
   15.7697  -17.8201  -13.5443 C   0  0  0  0  0  0  0  0  0  0  0  0
   16.2385  -19.1925  -13.9274 C   0  0  0  0  0  0  0  0  0  0  0  0
   15.7685  -19.0947  -12.9151 O   0  0  0  0  0  0  0  0  0  0  0  0
   15.2992  -18.3499  -12.2221 C   0  0  0  0  0  0  0  0  0  0  0  0
   14.8330  -18.8921  -10.9035 C   0  0  0  0  0  0  0  0  0  0  0  0
   15.5549  -21.2126  -11.3918 C   0  0  0  0  0  0  0  0  0  0  0  0
   16.0864  -20.8803  -12.7545 C   0  0  0  0  0  0  0  0  0  0  0  0
   16.6713  -20.7653  -14.1310 C   0  0  0  0  0  0  0  0  0  0  0  0
   15.4758  -19.8053  -11.9050 C   0  0  0  0  0  0  0  0  0  0  0  0
   17.6032  -22.5457  -15.3586 H   0  0  0  0  0  0  0  0  0  0  0  0
   17.8528  -21.0578  -16.6528 H   0  0  0  0  0  0  0  0  0  0  0  0
   16.7896  -21.6470  -13.9651 H   0  0  0  0  0  0  0  0  0  0  0  0
   17.7755  -20.1096  -16.9451 H   0  0  0  0  0  0  0  0  0  0  0  0
   17.8546  -18.7800  -17.7773 H   0  0  0  0  0  0  0  0  0  0  0  0
   17.6809  -17.6129  -17.9591 H   0  0  0  0  0  0  0  0  0  0  0  0
   17.1103  -16.0759  -17.4269 H   0  0  0  0  0  0  0  0  0  0  0  0
   16.4161  -15.0001  -16.3892 H   0  0  0  0  0  0  0  0  0  0  0  0
   15.1811  -15.9410  -13.1399 H   0  0  0  0  0  0  0  0  0  0  0  0
   15.9967  -14.2957  -15.7891 H   0  0  0  0  0  0  0  0  0  0  0  0
   15.1411  -16.8243  -12.6152 H   0  0  0  0  0  0  0  0  0  0  0  0
   15.9674  -18.4922  -13.6600 H   0  0  0  0  0  0  0  0  0  0  0  0
   14.1928  -18.6779   -9.5640 H   0  0  0  0  0  0  0  0  0  0  0  0
   15.2937  -22.2169  -10.3087 H   0  0  0  0  0  0  0  0  0  0  0  0
   16.4438  -22.3342  -12.8463 H   0  0  0  0  0  0  0  0  0  0  0  0
   16.8478  -22.2207  -13.8139 H   0  0  0  0  0  0  0  0  0  0  0  0
   17.3222  -21.6139  -15.1827 H   0  0  0  0  0  0  0  0  0  0  0  0
  1  2  1  0
  2  3  1  0
  3  4  1  0
  4  5  1  0
  5  6  1  0
  6  7  1  0
  7  8  2  0
  6  9  1  0
  9 10  1  0
 10 11  1  0
 11 12  1  0
 12 13  1  0
 13 14  1  0
 14 15  1  0
 15 16  1  0
 15 17  1  0
 10  2  1  0
 17 12  1  0
 16  2  1  0
 12  9  1  0
 17 13  1  0
 17 14  1  0
  1 18  1  0
  1 19  1  0
  1 20  1  0
  3 21  1  0
  3 22  1  0
  4 23  1  0
  4 24  1  0
  5 25  1  0
  6 26  1  0
  7 27  1  0
  9 28  1  0
 10 29  1  0
 13 30  1  0
 14 31  1  0
 15 32  1  0
 16 33  1  0
 16 34  1  0
M  END
