
     RDKit          2D

121123  0  0  0  0  0  0  0  0999 V2000
      -nan      -nan      -nan C   0  0  0  0  0  0  0  0  0  0  0  0
      -nan      -nan      -nan C   0  0  0  0  0  0  0  0  0  0  0  0
      -nan      -nan      -nan C   0  0  0  0  0  0  0  0  0  0  0  0
      -nan      -nan      -nan C   0  0  0  0  0  0  0  0  0  0  0  0
      -nan      -nan      -nan C   0  0  0  0  0  0  0  0  0  0  0  0
      -nan      -nan      -nan C   0  0  0  0  0  0  0  0  0  0  0  0
      -nan      -nan      -nan C   0  0  0  0  0  0  0  0  0  0  0  0
      -nan      -nan      -nan C   0  0  0  0  0  0  0  0  0  0  0  0
      -nan      -nan      -nan C   0  0  0  0  0  0  0  0  0  0  0  0
      -nan      -nan      -nan C   0  0  0  0  0  0  0  0  0  0  0  0
      -nan      -nan      -nan C   0  0  0  0  0  0  0  0  0  0  0  0
      -nan      -nan      -nan C   0  0  0  0  0  0  0  0  0  0  0  0
      -nan      -nan      -nan C   0  0  0  0  0  0  0  0  0  0  0  0
      -nan      -nan      -nan C   0  0  0  0  0  0  0  0  0  0  0  0
      -nan      -nan      -nan O   0  0  0  0  0  0  0  0  0  0  0  0
      -nan      -nan      -nan C   0  0  0  0  0  0  0  0  0  0  0  0
      -nan      -nan      -nan C   0  0  0  0  0  0  0  0  0  0  0  0
      -nan      -nan      -nan C   0  0  0  0  0  0  0  0  0  0  0  0
      -nan      -nan      -nan C   0  0  0  0  0  0  0  0  0  0  0  0
      -nan      -nan      -nan C   0  0  0  0  0  0  0  0  0  0  0  0
      -nan      -nan      -nan N   0  0  0  0  0  0  0  0  0  0  0  0
      -nan      -nan      -nan C   0  0  0  0  0  0  0  0  0  0  0  0
      -nan      -nan      -nan C   0  0  0  0  0  0  0  0  0  0  0  0
      -nan      -nan      -nan C   0  0  0  0  0  0  0  0  0  0  0  0
      -nan      -nan      -nan C   0  0  0  0  0  0  0  0  0  0  0  0
      -nan      -nan      -nan C   0  0  0  0  0  0  0  0  0  0  0  0
      -nan      -nan      -nan C   0  0  0  0  0  0  0  0  0  0  0  0
      -nan      -nan      -nan C   0  0  0  0  0  0  0  0  0  0  0  0
      -nan      -nan      -nan C   0  0  0  0  0  0  0  0  0  0  0  0
      -nan      -nan      -nan C   0  0  0  0  0  0  0  0  0  0  0  0
      -nan      -nan      -nan C   0  0  0  0  0  0  0  0  0  0  0  0
      -nan      -nan      -nan C   0  0  0  0  0  0  0  0  0  0  0  0
      -nan      -nan      -nan C   0  0  0  0  0  0  0  0  0  0  0  0
      -nan      -nan      -nan C   0  0  0  0  0  0  0  0  0  0  0  0
      -nan      -nan      -nan C   0  0  0  0  0  0  0  0  0  0  0  0
      -nan      -nan      -nan C   0  0  0  0  0  0  0  0  0  0  0  0
      -nan      -nan      -nan N   0  0  0  0  0  0  0  0  0  0  0  0
      -nan      -nan      -nan C   0  0  0  0  0  0  0  0  0  0  0  0
      -nan      -nan      -nan C   0  0  0  0  0  0  0  0  0  0  0  0
      -nan      -nan      -nan C   0  0  0  0  0  0  0  0  0  0  0  0
      -nan      -nan      -nan C   0  0  0  0  0  0  0  0  0  0  0  0
      -nan      -nan      -nan C   0  0  0  0  0  0  0  0  0  0  0  0
      -nan      -nan      -nan C   0  0  0  0  0  0  0  0  0  0  0  0
      -nan      -nan      -nan C   0  0  0  0  0  0  0  0  0  0  0  0
      -nan      -nan      -nan C   0  0  0  0  0  0  0  0  0  0  0  0
      -nan      -nan      -nan H   0  0  0  0  0  0  0  0  0  0  0  0
      -nan      -nan      -nan H   0  0  0  0  0  0  0  0  0  0  0  0
      -nan      -nan      -nan H   0  0  0  0  0  0  0  0  0  0  0  0
      -nan      -nan      -nan H   0  0  0  0  0  0  0  0  0  0  0  0
      -nan      -nan      -nan H   0  0  0  0  0  0  0  0  0  0  0  0
      -nan      -nan      -nan H   0  0  0  0  0  0  0  0  0  0  0  0
      -nan      -nan      -nan H   0  0  0  0  0  0  0  0  0  0  0  0
      -nan      -nan      -nan H   0  0  0  0  0  0  0  0  0  0  0  0
      -nan      -nan      -nan H   0  0  0  0  0  0  0  0  0  0  0  0
      -nan      -nan      -nan H   0  0  0  0  0  0  0  0  0  0  0  0
      -nan      -nan      -nan H   0  0  0  0  0  0  0  0  0  0  0  0
      -nan      -nan      -nan H   0  0  0  0  0  0  0  0  0  0  0  0
      -nan      -nan      -nan H   0  0  0  0  0  0  0  0  0  0  0  0
      -nan      -nan      -nan H   0  0  0  0  0  0  0  0  0  0  0  0
      -nan      -nan      -nan H   0  0  0  0  0  0  0  0  0  0  0  0
      -nan      -nan      -nan H   0  0  0  0  0  0  0  0  0  0  0  0
      -nan      -nan      -nan H   0  0  0  0  0  0  0  0  0  0  0  0
      -nan      -nan      -nan H   0  0  0  0  0  0  0  0  0  0  0  0
      -nan      -nan      -nan H   0  0  0  0  0  0  0  0  0  0  0  0
      -nan      -nan      -nan H   0  0  0  0  0  0  0  0  0  0  0  0
      -nan      -nan      -nan H   0  0  0  0  0  0  0  0  0  0  0  0
      -nan      -nan      -nan H   0  0  0  0  0  0  0  0  0  0  0  0
      -nan      -nan      -nan H   0  0  0  0  0  0  0  0  0  0  0  0
      -nan      -nan      -nan H   0  0  0  0  0  0  0  0  0  0  0  0
      -nan      -nan      -nan H   0  0  0  0  0  0  0  0  0  0  0  0
      -nan      -nan      -nan H   0  0  0  0  0  0  0  0  0  0  0  0
      -nan      -nan      -nan H   0  0  0  0  0  0  0  0  0  0  0  0
      -nan      -nan      -nan H   0  0  0  0  0  0  0  0  0  0  0  0
      -nan      -nan      -nan H   0  0  0  0  0  0  0  0  0  0  0  0
      -nan      -nan      -nan H   0  0  0  0  0  0  0  0  0  0  0  0
      -nan      -nan      -nan H   0  0  0  0  0  0  0  0  0  0  0  0
      -nan      -nan      -nan H   0  0  0  0  0  0  0  0  0  0  0  0
      -nan      -nan      -nan H   0  0  0  0  0  0  0  0  0  0  0  0
      -nan      -nan      -nan H   0  0  0  0  0  0  0  0  0  0  0  0
      -nan      -nan      -nan H   0  0  0  0  0  0  0  0  0  0  0  0
      -nan      -nan      -nan H   0  0  0  0  0  0  0  0  0  0  0  0
      -nan      -nan      -nan H   0  0  0  0  0  0  0  0  0  0  0  0
      -nan      -nan      -nan H   0  0  0  0  0  0  0  0  0  0  0  0
      -nan      -nan      -nan H   0  0  0  0  0  0  0  0  0  0  0  0
      -nan      -nan      -nan H   0  0  0  0  0  0  0  0  0  0  0  0
      -nan      -nan      -nan H   0  0  0  0  0  0  0  0  0  0  0  0
      -nan      -nan      -nan H   0  0  0  0  0  0  0  0  0  0  0  0
      -nan      -nan      -nan H   0  0  0  0  0  0  0  0  0  0  0  0
      -nan      -nan      -nan H   0  0  0  0  0  0  0  0  0  0  0  0
      -nan      -nan      -nan H   0  0  0  0  0  0  0  0  0  0  0  0
      -nan      -nan      -nan H   0  0  0  0  0  0  0  0  0  0  0  0
      -nan      -nan      -nan H   0  0  0  0  0  0  0  0  0  0  0  0
      -nan      -nan      -nan H   0  0  0  0  0  0  0  0  0  0  0  0
      -nan      -nan      -nan H   0  0  0  0  0  0  0  0  0  0  0  0
      -nan      -nan      -nan H   0  0  0  0  0  0  0  0  0  0  0  0
      -nan      -nan      -nan H   0  0  0  0  0  0  0  0  0  0  0  0
      -nan      -nan      -nan H   0  0  0  0  0  0  0  0  0  0  0  0
      -nan      -nan      -nan H   0  0  0  0  0  0  0  0  0  0  0  0
      -nan      -nan      -nan H   0  0  0  0  0  0  0  0  0  0  0  0
      -nan      -nan      -nan H   0  0  0  0  0  0  0  0  0  0  0  0
      -nan      -nan      -nan H   0  0  0  0  0  0  0  0  0  0  0  0
      -nan      -nan      -nan H   0  0  0  0  0  0  0  0  0  0  0  0
      -nan      -nan      -nan H   0  0  0  0  0  0  0  0  0  0  0  0
      -nan      -nan      -nan H   0  0  0  0  0  0  0  0  0  0  0  0
      -nan      -nan      -nan H   0  0  0  0  0  0  0  0  0  0  0  0
      -nan      -nan      -nan H   0  0  0  0  0  0  0  0  0  0  0  0
      -nan      -nan      -nan H   0  0  0  0  0  0  0  0  0  0  0  0
      -nan      -nan      -nan H   0  0  0  0  0  0  0  0  0  0  0  0
      -nan      -nan      -nan H   0  0  0  0  0  0  0  0  0  0  0  0
      -nan      -nan      -nan H   0  0  0  0  0  0  0  0  0  0  0  0
      -nan      -nan      -nan H   0  0  0  0  0  0  0  0  0  0  0  0
      -nan      -nan      -nan H   0  0  0  0  0  0  0  0  0  0  0  0
      -nan      -nan      -nan H   0  0  0  0  0  0  0  0  0  0  0  0
      -nan      -nan      -nan H   0  0  0  0  0  0  0  0  0  0  0  0
      -nan      -nan      -nan H   0  0  0  0  0  0  0  0  0  0  0  0
      -nan      -nan      -nan H   0  0  0  0  0  0  0  0  0  0  0  0
      -nan      -nan      -nan H   0  0  0  0  0  0  0  0  0  0  0  0
      -nan      -nan      -nan H   0  0  0  0  0  0  0  0  0  0  0  0
      -nan      -nan      -nan H   0  0  0  0  0  0  0  0  0  0  0  0
      -nan      -nan      -nan H   0  0  0  0  0  0  0  0  0  0  0  0
      -nan      -nan      -nan H   0  0  0  0  0  0  0  0  0  0  0  0
  1  2  2  3
  2  3  1  0
  3  4  1  0
  2  5  1  0
  5  6  1  0
  6  7  1  0
  7  8  1  0
  8  9  1  0
  9 10  2  3
  9 11  1  0
 11 12  1  0
 12 13  1  0
 13 14  1  0
 13 15  1  0
  7 16  1  0
 16 17  1  0
 17 18  1  0
 18 19  1  0
 17 20  1  0
 20 21  1  0
 21 22  1  0
 22 23  1  0
 23 24  1  0
 24 25  1  0
 25 26  1  0
 26 27  1  0
 22 28  1  0
 28 29  1  0
 29 30  1  0
 30 31  1  0
 31 32  1  0
 31 33  1  0
 16 34  1  0
 34 35  1  0
 35 36  1  0
 36 37  1  0
 37 38  1  0
 38 39  1  0
 39 40  1  0
 39 41  1  0
 39 42  1  0
 42 43  2  3
 42 44  1  0
 44 45  1  0
 33 29  1  0
 37 34  1  0
 33 30  1  0
  1 46  1  0
  1 47  1  0
  3 48  1  0
  3 49  1  0
  4 50  1  0
  4 51  1  0
  4 52  1  0
  5 53  1  0
  5 54  1  0
  6 55  1  0
  6 56  1  0
  7 57  1  0
  8 58  1  0
  8 59  1  0
 10 60  1  0
 10 61  1  0
 11 62  1  0
 11 63  1  0
 12 64  1  0
 12 65  1  0
 13 66  1  0
 14 67  1  0
 14 68  1  0
 14 69  1  0
 15 70  1  0
 16 71  1  0
 17 72  1  0
 18 73  1  0
 18 74  1  0
 19 75  1  0
 19 76  1  0
 19 77  1  0
 20 78  1  0
 20 79  1  0
 21 80  1  0
 22 81  1  0
 23 82  1  0
 23 83  1  0
 24 84  1  0
 24 85  1  0
 25 86  1  0
 25 87  1  0
 26 88  1  0
 26 89  1  0
 27 90  1  0
 27 91  1  0
 27 92  1  0
 28 93  1  0
 28 94  1  0
 29 95  1  0
 30 96  1  0
 31 97  1  0
 32 98  1  0
 32 99  1  0
 32100  1  0
 33101  1  0
 34102  1  0
 35103  1  0
 35104  1  0
 36105  1  0
 36106  1  0
 38107  1  0
 38108  1  0
 40109  1  0
 40110  1  0
 40111  1  0
 41112  1  0
 41113  1  0
 41114  1  0
 43115  1  0
 43116  1  0
 44117  1  0
 44118  1  0
 45119  1  0
 45120  1  0
 45121  1  0
M  END
