
     RDKit          2D

 59 62  0  0  0  0  0  0  0  0999 V2000
    4.2401   22.3778    7.5568 C   0  0  0  0  0  0  0  0  0  0  0  0
    3.0017   22.8855    6.8796 C   0  0  0  0  0  0  0  0  0  0  0  0
    1.7634   23.3933    6.2023 C   0  0  0  0  0  0  0  0  0  0  0  0
    0.5250   23.9010    5.5250 C   0  0  0  0  0  0  0  0  0  0  0  0
    0.8871   23.9930    4.0722 C   0  0  0  0  0  0  0  0  0  0  0  0
   -0.4919   24.4940    3.7603 C   0  0  0  0  0  0  0  0  0  0  0  0
   -1.8710   24.9950    3.4484 C   0  0  0  0  0  0  0  0  0  0  0  0
   -3.2500   25.4960    3.1365 C   0  0  0  0  0  0  0  0  0  0  0  0
   -4.6291   25.9970    2.8245 O   0  0  0  0  0  0  0  0  0  0  0  0
   -5.0081   26.3181    1.4092 O   0  0  0  0  0  0  0  0  0  0  0  0
   -1.5111   25.0806    1.9948 C   0  0  0  0  0  0  0  0  0  0  0  0
   -2.8932   25.5721    1.6815 O   0  0  0  0  0  0  0  0  0  0  0  0
   -1.1512   25.1662    0.5410 C   0  0  0  0  0  0  0  0  0  0  0  0
   -0.7913   25.2519   -0.9126 C   0  0  0  0  0  0  0  0  0  0  0  0
   -0.4313   25.3375   -2.3663 O   0  0  0  0  0  0  0  0  0  0  0  0
   -0.8539   24.4020    5.2130 C   0  0  0  0  0  0  0  0  0  0  0  0
   -3.2120   24.9856    6.5539 C   0  0  0  0  0  0  0  0  0  0  0  0
   -3.0607   24.9269    6.6138 C   0  0  0  0  0  0  0  0  0  0  0  0
   -4.0979   25.2974    6.4228 C   0  0  0  0  0  0  0  0  0  0  0  0
   -2.9061   25.0305    5.5519 O   0  0  0  0  0  0  0  0  0  0  0  0
   -2.1235   24.5966    6.7558 C   0  0  0  0  0  0  0  0  0  0  0  0
   -3.3153   24.8635    7.6267 C   0  0  0  0  0  0  0  0  0  0  0  0
   -4.5071   25.1303    8.4975 C   0  0  0  0  0  0  0  0  0  0  0  0
   -5.6989   25.3972    9.3684 C   0  0  0  0  0  0  0  0  0  0  0  0
   -0.4781   24.0718    6.6272 C   0  0  0  0  0  0  0  0  0  0  0  0
    5.4783   21.8701    8.2342 H   0  0  0  0  0  0  0  0  0  0  0  0
    4.9464   22.3361    6.2342 H   0  0  0  0  0  0  0  0  0  0  0  0
    3.5337   22.4195    8.8795 H   0  0  0  0  0  0  0  0  0  0  0  0
    3.6373   22.6505    5.5413 H   0  0  0  0  0  0  0  0  0  0  0  0
    2.3661   23.1206    8.2178 H   0  0  0  0  0  0  0  0  0  0  0  0
    1.3967   23.8155    7.5941 H   0  0  0  0  0  0  0  0  0  0  0  0
    2.4319   22.8472    4.9755 H   0  0  0  0  0  0  0  0  0  0  0  0
    1.2491   24.0850    2.6195 H   0  0  0  0  0  0  0  0  0  0  0  0
    2.2999   23.5070    4.2047 H   0  0  0  0  0  0  0  0  0  0  0  0
    0.0355   24.5243    2.3564 H   0  0  0  0  0  0  0  0  0  0  0  0
   -2.5539   25.0331    4.7833 H   0  0  0  0  0  0  0  0  0  0  0  0
   -3.2355   25.6973    1.6501 H   0  0  0  0  0  0  0  0  0  0  0  0
   -3.9320   25.5372    4.4718 H   0  0  0  0  0  0  0  0  0  0  0  0
   -6.3871   26.8190    1.0972 H   0  0  0  0  0  0  0  0  0  0  0  0
   -0.0953   24.6032    2.1285 H   0  0  0  0  0  0  0  0  0  0  0  0
   -3.4375   25.9363    0.3320 H   0  0  0  0  0  0  0  0  0  0  0  0
   -2.4801   25.6615    0.0525 H   0  0  0  0  0  0  0  0  0  0  0  0
    0.2320   24.6778    0.8547 H   0  0  0  0  0  0  0  0  0  0  0  0
    0.5861   24.7456   -0.6014 H   0  0  0  0  0  0  0  0  0  0  0  0
   -2.1685   25.7581   -1.2238 H   0  0  0  0  0  0  0  0  0  0  0  0
   -1.4486   25.8051   -3.3645 H   0  0  0  0  0  0  0  0  0  0  0  0
   -2.4854   25.1426    3.8286 H   0  0  0  0  0  0  0  0  0  0  0  0
   -3.5836   25.5435    3.5667 H   0  0  0  0  0  0  0  0  0  0  0  0
   -4.9812   25.8668    4.5169 H   0  0  0  0  0  0  0  0  0  0  0  0
   -5.4940   25.7929    6.1873 H   0  0  0  0  0  0  0  0  0  0  0  0
   -0.8389   24.0873    7.3393 H   0  0  0  0  0  0  0  0  0  0  0  0
   -2.5327   24.4296    8.8305 H   0  0  0  0  0  0  0  0  0  0  0  0
   -3.7240   24.6982    9.7017 H   0  0  0  0  0  0  0  0  0  0  0  0
   -5.2902   25.5624    7.2934 H   0  0  0  0  0  0  0  0  0  0  0  0
   -6.8907   25.6640   10.2392 H   0  0  0  0  0  0  0  0  0  0  0  0
   -4.9160   24.9645   10.5724 H   0  0  0  0  0  0  0  0  0  0  0  0
   -6.4819   25.8299    8.1643 H   0  0  0  0  0  0  0  0  0  0  0  0
   -1.5814   24.2918    7.6191 H   0  0  0  0  0  0  0  0  0  0  0  0
    0.1977   23.6628    7.9024 H   0  0  0  0  0  0  0  0  0  0  0  0
  1  2  1  0
  2  3  1  0
  3  4  1  0
  4  5  1  0
  5  6  1  0
  6  7  1  0
  7  8  1  0
  8  9  1  0
  9 10  1  0
  7 11  1  0
 11 12  1  0
 11 13  1  0
 13 14  1  0
 14 15  1  0
  6 16  1  0
 16 17  1  0
 17 18  1  0
 18 19  1  0
 19 20  1  0
 20 21  1  0
 21 22  1  0
 22 23  1  0
 23 24  1  0
 16 25  1  0
 16  4  1  0
 21 17  1  0
 25  4  1  0
 22 19  1  0
  1 26  1  0
  1 27  1  0
  1 28  1  0
  2 29  1  0
  2 30  1  0
  3 31  1  0
  3 32  1  0
  5 33  1  0
  5 34  1  0
  6 35  1  0
  7 36  1  0
  8 37  1  0
  8 38  1  0
 10 39  1  0
 11 40  1  0
 12 41  1  0
 13 42  1  0
 13 43  1  0
 14 44  1  0
 14 45  1  0
 15 46  1  0
 17 47  1  0
 18 48  1  0
 18 49  1  0
 19 50  1  0
 21 51  1  0
 22 52  1  0
 23 53  1  0
 23 54  1  0
 24 55  1  0
 24 56  1  0
 24 57  1  0
 25 58  1  0
 25 59  1  0
M  END
