
     RDKit          2D

 43 46  0  0  0  0  0  0  0  0999 V2000
   16.6692  -20.9588  -10.2128 C   0  0  0  0  0  0  0  0  0  0  0  0
   17.9151  -21.1653  -11.0220 C   0  0  0  0  0  0  0  0  0  0  0  0
   19.1612  -21.3718  -11.8313 C   0  0  0  0  0  0  0  0  0  0  0  0
   18.5769  -21.3754  -13.2128 C   0  0  0  0  0  0  0  0  0  0  0  0
   18.7550  -21.4830  -14.6983 C   0  0  0  0  0  0  0  0  0  0  0  0
   18.1708  -21.4866  -16.0799 C   0  0  0  0  0  0  0  0  0  0  0  0
   19.0636  -21.6694  -17.2712 C   0  0  0  0  0  0  0  0  0  0  0  0
   20.5406  -21.8487  -17.0811 C   0  0  0  0  0  0  0  0  0  0  0  0
   21.1249  -21.8451  -15.6996 C   0  0  0  0  0  0  0  0  0  0  0  0
   20.2321  -21.6623  -14.5082 C   0  0  0  0  0  0  0  0  0  0  0  0
   20.0540  -21.5546  -13.0227 C   0  0  0  0  0  0  0  0  0  0  0  0
   17.1019  -21.1353  -12.2821 C   0  0  0  0  0  0  0  0  0  0  0  0
   15.9113  -21.0370  -13.1893 O   0  0  0  0  0  0  0  0  0  0  0  0
   15.7333  -20.9285  -11.7038 C   0  0  0  0  0  0  0  0  0  0  0  0
   14.2474  -20.7362  -11.6329 C   0  0  0  0  0  0  0  0  0  0  0  0
   16.0713  -20.8867  -10.2430 C   0  0  0  0  0  0  0  0  0  0  0  0
   16.4094  -20.8449   -8.7822 O   0  0  0  0  0  0  0  0  0  0  0  0
   15.3233  -20.6486   -7.7663 C   0  0  0  0  0  0  0  0  0  0  0  0
   15.6613  -20.6068   -6.3056 O   0  0  0  0  0  0  0  0  0  0  0  0
   15.4231  -20.7524   -9.4036 H   0  0  0  0  0  0  0  0  0  0  0  0
   17.4820  -20.9921   -8.9526 H   0  0  0  0  0  0  0  0  0  0  0  0
   15.5789  -20.8766  -11.2397 H   0  0  0  0  0  0  0  0  0  0  0  0
   18.7285  -21.1954   -9.7620 H   0  0  0  0  0  0  0  0  0  0  0  0
   20.1782  -21.4400  -10.7308 H   0  0  0  0  0  0  0  0  0  0  0  0
   17.0969  -21.1943  -13.3770 H   0  0  0  0  0  0  0  0  0  0  0  0
   17.3188  -21.2765  -14.3181 H   0  0  0  0  0  0  0  0  0  0  0  0
   17.1537  -21.4185  -17.1803 H   0  0  0  0  0  0  0  0  0  0  0  0
   16.8350  -21.2777  -15.4302 H   0  0  0  0  0  0  0  0  0  0  0  0
   19.4955  -21.8066  -18.7011 H   0  0  0  0  0  0  0  0  0  0  0  0
   17.7365  -21.5378  -17.9579 H   0  0  0  0  0  0  0  0  0  0  0  0
   21.9895  -22.0539  -17.4105 H   0  0  0  0  0  0  0  0  0  0  0  0
   20.4595  -21.9235  -18.5771 H   0  0  0  0  0  0  0  0  0  0  0  0
   22.2666  -21.9368  -14.7311 H   0  0  0  0  0  0  0  0  0  0  0  0
   22.3709  -22.0516  -16.5088 H   0  0  0  0  0  0  0  0  0  0  0  0
   21.5349  -21.7882  -13.7754 H   0  0  0  0  0  0  0  0  0  0  0  0
   21.4346  -21.6999  -12.4546 H   0  0  0  0  0  0  0  0  0  0  0  0
   17.9094  -21.3101  -13.5339 H   0  0  0  0  0  0  0  0  0  0  0  0
   12.7614  -20.5439  -11.5620 H   0  0  0  0  0  0  0  0  0  0  0  0
   14.0868  -21.5054  -12.9106 H   0  0  0  0  0  0  0  0  0  0  0  0
   14.2256  -19.9493  -10.3560 H   0  0  0  0  0  0  0  0  0  0  0  0
   14.6740  -20.6817   -9.7377 H   0  0  0  0  0  0  0  0  0  0  0  0
   17.5594  -21.0721  -10.2093 H   0  0  0  0  0  0  0  0  0  0  0  0
   13.8992  -20.4940   -8.2113 H   0  0  0  0  0  0  0  0  0  0  0  0
  1  2  1  0
  2  3  1  0
  3  4  1  0
  4  5  1  0
  5  6  1  0
  6  7  1  0
  7  8  1  0
  8  9  1  0
  9 10  1  0
 10 11  1  0
  2 12  1  0
 12 13  1  0
 13 14  1  0
 14 15  1  0
 14 16  1  0
 16 17  1  0
 17 18  1  0
 18 19  2  0
 11  3  1  0
 14 12  1  0
 11  4  1  0
 10  5  1  0
  1 20  1  0
  1 21  1  0
  1 22  1  0
  2 23  1  0
  3 24  1  0
  4 25  1  0
  5 26  1  0
  6 27  1  0
  6 28  1  0
  7 29  1  0
  7 30  1  0
  8 31  1  0
  8 32  1  0
  9 33  1  0
  9 34  1  0
 10 35  1  0
 11 36  1  0
 12 37  1  0
 15 38  1  0
 15 39  1  0
 15 40  1  0
 16 41  1  0
 16 42  1  0
 18 43  1  0
M  END
