
     RDKit          2D

 64 69  0  0  0  0  0  0  0  0999 V2000
   15.0657  -20.6102   -7.2915 C   0  0  0  0  0  0  0  0  0  0  0  0
   14.6766  -19.3108   -7.9322 C   0  0  0  0  0  0  0  0  0  0  0  0
   13.2278  -18.9754   -8.1278 C   0  0  0  0  0  0  0  0  0  0  0  0
   11.9294  -19.6621   -7.8229 C   0  0  0  0  0  0  0  0  0  0  0  0
   11.1787  -18.5009   -8.4045 C   0  0  0  0  0  0  0  0  0  0  0  0
   12.4770  -17.8143   -8.7094 C   0  0  0  0  0  0  0  0  0  0  0  0
   11.5324  -16.7749   -9.2361 C   0  0  0  0  0  0  0  0  0  0  0  0
   12.3483  -15.6359   -9.7718 N   0  0  0  0  0  0  0  0  0  0  0  0
   13.4081  -14.6721  -10.2168 C   0  0  0  0  0  0  0  0  0  0  0  0
   13.7972  -15.9714   -9.5761 C   0  0  0  0  0  0  0  0  0  0  0  0
   13.8767  -17.3177   -8.9195 C   0  0  0  0  0  0  0  0  0  0  0  0
   15.3577  -17.0927   -8.9957 C   0  0  0  0  0  0  0  0  0  0  0  0
   15.5934  -18.4232   -8.3445 O   0  0  0  0  0  0  0  0  0  0  0  0
   17.0745  -18.1983   -8.4207 C   0  0  0  0  0  0  0  0  0  0  0  0
   18.5556  -17.9733   -8.4969 C   0  0  0  0  0  0  0  0  0  0  0  0
   20.0366  -17.7483   -8.5731 C   0  0  0  0  0  0  0  0  0  0  0  0
   21.5177  -17.5233   -8.6493 C   0  0  0  0  0  0  0  0  0  0  0  0
   22.9987  -17.2983   -8.7256 C   0  0  0  0  0  0  0  0  0  0  0  0
   24.4799  -17.0734   -8.8018 C   0  0  0  0  0  0  0  0  0  0  0  0
   25.9609  -16.8485   -8.8780 C   0  0  0  0  0  0  0  0  0  0  0  0
   18.3199  -16.6428   -9.1482 C   0  0  0  0  0  0  0  0  0  0  0  0
   18.0843  -15.3123   -9.7995 C   0  0  0  0  0  0  0  0  0  0  0  0
   16.5863  -15.2569   -9.7445 C   0  0  0  0  0  0  0  0  0  0  0  0
   18.3689  -14.0009  -10.4699 C   0  0  0  0  0  0  0  0  0  0  0  0
   19.5004  -14.9055  -10.0807 C   0  0  0  0  0  0  0  0  0  0  0  0
   20.6639  -14.0856  -10.5542 O   0  0  0  0  0  0  0  0  0  0  0  0
   16.8389  -16.8677   -9.0720 C   0  0  0  0  0  0  0  0  0  0  0  0
   15.4549  -21.9094   -6.6508 H   0  0  0  0  0  0  0  0  0  0  0  0
   16.5140  -20.2473   -7.4352 H   0  0  0  0  0  0  0  0  0  0  0  0
   13.6174  -20.9731   -7.1478 H   0  0  0  0  0  0  0  0  0  0  0  0
   15.3594  -18.9352   -8.0996 H   0  0  0  0  0  0  0  0  0  0  0  0
   12.6802  -20.8233   -7.2413 H   0  0  0  0  0  0  0  0  0  0  0  0
   10.6311  -20.3488   -7.5180 H   0  0  0  0  0  0  0  0  0  0  0  0
    9.8805  -19.1877   -8.0996 H   0  0  0  0  0  0  0  0  0  0  0  0
   10.2753  -17.4323   -8.9445 H   0  0  0  0  0  0  0  0  0  0  0  0
   10.3512  -17.6164   -8.8532 H   0  0  0  0  0  0  0  0  0  0  0  0
   10.3663  -15.9370   -9.6697 H   0  0  0  0  0  0  0  0  0  0  0  0
   12.5470  -13.5752  -10.7696 H   0  0  0  0  0  0  0  0  0  0  0  0
   14.7669  -14.0892  -10.4698 H   0  0  0  0  0  0  0  0  0  0  0  0
   15.1773  -15.4313   -9.8079 H   0  0  0  0  0  0  0  0  0  0  0  0
   14.2658  -18.6169   -8.2789 H   0  0  0  0  0  0  0  0  0  0  0  0
   15.1221  -15.7622   -9.6470 H   0  0  0  0  0  0  0  0  0  0  0  0
   17.3101  -19.5288   -7.7694 H   0  0  0  0  0  0  0  0  0  0  0  0
   18.7912  -19.3038   -7.8456 H   0  0  0  0  0  0  0  0  0  0  0  0
   20.2471  -18.7682   -7.4936 H   0  0  0  0  0  0  0  0  0  0  0  0
   20.1908  -16.7043   -9.6390 H   0  0  0  0  0  0  0  0  0  0  0  0
   21.7388  -18.6537   -7.6885 H   0  0  0  0  0  0  0  0  0  0  0  0
   21.2965  -16.3929   -9.6102 H   0  0  0  0  0  0  0  0  0  0  0  0
   22.7684  -15.8204   -8.8379 H   0  0  0  0  0  0  0  0  0  0  0  0
   23.2290  -18.7763   -8.6133 H   0  0  0  0  0  0  0  0  0  0  0  0
   24.2504  -15.5941   -8.8968 H   0  0  0  0  0  0  0  0  0  0  0  0
   24.7094  -18.5527   -8.7068 H   0  0  0  0  0  0  0  0  0  0  0  0
   27.4420  -16.6236   -8.9542 H   0  0  0  0  0  0  0  0  0  0  0  0
   26.1923  -18.1068   -8.0951 H   0  0  0  0  0  0  0  0  0  0  0  0
   25.7296  -15.5901   -9.6609 H   0  0  0  0  0  0  0  0  0  0  0  0
   19.8010  -16.4178   -9.2244 H   0  0  0  0  0  0  0  0  0  0  0  0
   15.1388  -14.8787   -9.8534 H   0  0  0  0  0  0  0  0  0  0  0  0
   16.4284  -13.9189  -10.4038 H   0  0  0  0  0  0  0  0  0  0  0  0
   16.1998  -16.5450   -9.0801 H   0  0  0  0  0  0  0  0  0  0  0  0
   17.0455  -13.3427  -10.7255 H   0  0  0  0  0  0  0  0  0  0  0  0
   19.1394  -12.8669  -11.0785 H   0  0  0  0  0  0  0  0  0  0  0  0
   20.5231  -15.9087   -9.6362 H   0  0  0  0  0  0  0  0  0  0  0  0
   22.0631  -14.5963  -10.3764 H   0  0  0  0  0  0  0  0  0  0  0  0
   16.2518  -15.6312   -9.6855 H   0  0  0  0  0  0  0  0  0  0  0  0
  1  2  1  0
  2  3  2  3
  3  4  1  0
  4  5  1  0
  6  5  1  6
  6  7  1  0
  7  8  1  0
  8  9  1  0
  9 10  1  0
 10 11  1  0
 11 12  1  0
 12 13  1  0
 13 14  1  0
 14 15  1  0
 15 16  1  0
 16 17  1  0
 17 18  1  0
 18 19  1  0
 19 20  1  0
 15 21  1  0
 21 22  1  0
 22 23  1  1
 22 24  1  0
 24 25  1  0
 25 26  1  0
 21 27  1  0
  6  3  1  0
 10  8  1  0
 27 12  1  0
 11  6  1  0
 27 14  1  0
 25 22  1  0
  1 28  1  0
  1 29  1  0
  1 30  1  0
  2 31  1  0
  4 32  1  0
  4 33  1  0
  5 34  1  0
  5 35  1  0
  7 36  1  0
  7 37  1  0
  9 38  1  0
  9 39  1  0
 10 40  1  1
 11 41  1  1
 12 42  1  1
 14 43  1  1
 15 44  1  1
 16 45  1  0
 16 46  1  0
 17 47  1  0
 17 48  1  0
 18 49  1  0
 18 50  1  0
 19 51  1  0
 19 52  1  0
 20 53  1  0
 20 54  1  0
 20 55  1  0
 21 56  1  6
 23 57  1  0
 23 58  1  0
 23 59  1  0
 24 60  1  0
 24 61  1  0
 25 62  1  1
 26 63  1  0
 27 64  1  1
M  END
