
     RDKit          2D

 94101  0  0  0  0  0  0  0  0999 V2000
    0.6332   21.6651    4.0099 C   0  0  0  0  0  0  0  0  0  0  0  0
   -0.7534   22.0654    4.4189 B   0  0  0  0  0  0  0  0  0  0  0  0
   -1.9117   21.3660    5.0665 C   0  0  0  0  0  0  0  0  0  0  0  0
   -1.1090   20.1007    5.1357 C   0  0  0  0  0  0  0  0  0  0  0  0
   -2.7143   22.6313    4.9974 C   0  0  0  0  0  0  0  0  0  0  0  0
   -1.5560   23.3307    4.3497 C   0  0  0  0  0  0  0  0  0  0  0  0
   -2.3586   24.5960    4.2806 C   0  0  0  0  0  0  0  0  0  0  0  0
   -3.1612   25.8613    4.2114 C   0  0  0  0  0  0  0  0  0  0  0  0
   -4.4409   25.3927    4.8383 C   0  0  0  0  0  0  0  0  0  0  0  0
   -5.7205   24.9240    5.4651 C   0  0  0  0  0  0  0  0  0  0  0  0
   -7.0001   24.4554    6.0920 C   0  0  0  0  0  0  0  0  0  0  0  0
   -8.2797   23.9867    6.7188 C   0  0  0  0  0  0  0  0  0  0  0  0
   -9.5594   23.5181    7.3457 I   0  0  0  0  0  0  0  0  0  0  0  0
   -6.2362   23.4462    6.8970 C   0  0  0  0  0  0  0  0  0  0  0  0
   -5.4722   22.4371    7.7020 C   0  0  0  0  0  0  0  0  0  0  0  0
   -7.4792   23.1237    7.6722 C   0  0  0  0  0  0  0  0  0  0  0  0
   -2.1603   26.7694    3.5605 C   0  0  0  0  0  0  0  0  0  0  0  0
   -1.5589   28.0074    2.9642 O   0  0  0  0  0  0  0  0  0  0  0  0
   -0.1549   27.9801    2.4369 C   0  0  0  0  0  0  0  0  0  0  0  0
    1.2491   27.9528    1.9097 C   0  0  0  0  0  0  0  0  0  0  0  0
    2.6082   27.4328    1.5457 C   0  0  0  0  0  0  0  0  0  0  0  0
    3.2096   28.6708    0.9494 C   0  0  0  0  0  0  0  0  0  0  0  0
    1.6073   26.5247    2.1966 C   0  0  0  0  0  0  0  0  0  0  0  0
    2.4099   25.2593    2.2658 C   0  0  0  0  0  0  0  0  0  0  0  0
   -3.5194   27.2894    3.9246 C   0  0  0  0  0  0  0  0  0  0  0  0
   -4.8785   27.8094    4.2886 C   0  0  0  0  0  0  0  0  0  0  0  0
   -3.8776   28.7174    3.6377 C   0  0  0  0  0  0  0  0  0  0  0  0
   -4.2359   30.1456    3.3508 C   0  0  0  0  0  0  0  0  0  0  0  0
   -2.8768   29.6256    2.9868 Sb  0  0  0  0  0  3  0  0  0  0  0  0
   -1.5143   29.8496    2.4009 C   0  0  0  0  0  0  0  0  0  0  0  0
   -1.3981   28.4044    2.7851 C   0  0  0  0  0  0  0  0  0  0  0  0
   -1.2819   26.9590    3.1694 O   0  0  0  0  0  0  0  0  0  0  0  0
   -2.8021   28.4317    3.3126 F   0  0  0  0  0  0  0  0  0  0  0  0
   -0.1114   29.5717    1.9484 C   0  0  0  0  0  0  0  0  0  0  0  0
    0.7021   30.6613    1.3152 C   0  0  0  0  0  0  0  0  0  0  0  0
    1.5156   31.7509    0.6819 C   0  0  0  0  0  0  0  0  0  0  0  0
    0.1128   32.0288    1.1344 C   0  0  0  0  0  0  0  0  0  0  0  0
   -1.2901   32.3067    1.5869 C   0  0  0  0  0  0  0  0  0  0  0  0
   -2.6930   32.5846    2.0394 C   0  0  0  0  0  0  0  0  0  0  0  0
   -2.1036   31.2171    2.2201 C   0  0  0  0  0  0  0  0  0  0  0  0
    2.0197   21.2650    3.6008 H   0  0  0  0  0  0  0  0  0  0  0  0
    0.5538   20.2385    4.4662 H   0  0  0  0  0  0  0  0  0  0  0  0
    0.8834   23.0533    3.4999 H   0  0  0  0  0  0  0  0  0  0  0  0
   -3.0699   20.6667    5.7141 H   0  0  0  0  0  0  0  0  0  0  0  0
   -0.3064   18.8354    5.2048 H   0  0  0  0  0  0  0  0  0  0  0  0
   -2.0423   19.5659    6.1811 H   0  0  0  0  0  0  0  0  0  0  0  0
   -0.0849   20.4774    4.1065 H   0  0  0  0  0  0  0  0  0  0  0  0
   -3.9617   22.0916    5.6317 H   0  0  0  0  0  0  0  0  0  0  0  0
   -2.2158   21.2344    5.2212 H   0  0  0  0  0  0  0  0  0  0  0  0
   -0.3977   24.0300    3.7021 H   0  0  0  0  0  0  0  0  0  0  0  0
   -1.0100   25.2413    4.4017 H   0  0  0  0  0  0  0  0  0  0  0  0
   -3.5116   23.6422    4.1763 H   0  0  0  0  0  0  0  0  0  0  0  0
   -3.9840   24.0028    5.1693 H   0  0  0  0  0  0  0  0  0  0  0  0
   -5.2096   26.6683    4.6600 H   0  0  0  0  0  0  0  0  0  0  0  0
   -5.0432   23.5868    5.4104 H   0  0  0  0  0  0  0  0  0  0  0  0
   -6.2457   26.3289    5.4433 H   0  0  0  0  0  0  0  0  0  0  0  0
   -7.7640   25.4645    5.2870 H   0  0  0  0  0  0  0  0  0  0  0  0
   -8.5693   25.3863    7.1741 H   0  0  0  0  0  0  0  0  0  0  0  0
   -8.3084   22.5154    6.4287 H   0  0  0  0  0  0  0  0  0  0  0  0
   -4.9094   23.6434    6.2256 H   0  0  0  0  0  0  0  0  0  0  0  0
   -4.7083   21.4280    8.5070 H   0  0  0  0  0  0  0  0  0  0  0  0
   -6.2803   22.5572    8.9600 H   0  0  0  0  0  0  0  0  0  0  0  0
   -4.6642   22.3171    6.4440 H   0  0  0  0  0  0  0  0  0  0  0  0
   -8.7221   22.8012    8.4475 H   0  0  0  0  0  0  0  0  0  0  0  0
   -7.0672   21.7511    8.1153 H   0  0  0  0  0  0  0  0  0  0  0  0
   -8.3306   24.3490    7.5189 H   0  0  0  0  0  0  0  0  0  0  0  0
   -0.9196   25.9593    3.3277 H   0  0  0  0  0  0  0  0  0  0  0  0
   -0.0380   26.5354    2.8232 H   0  0  0  0  0  0  0  0  0  0  0  0
    0.0714   29.3752    1.9346 H   0  0  0  0  0  0  0  0  0  0  0  0
    1.5486   29.3269    1.3881 H   0  0  0  0  0  0  0  0  0  0  0  0
    3.8490   26.6227    1.3128 H   0  0  0  0  0  0  0  0  0  0  0  0
    3.8110   29.9088    0.3530 H   0  0  0  0  0  0  0  0  0  0  0  0
    4.4845   27.9252    0.6873 H   0  0  0  0  0  0  0  0  0  0  0  0
    2.1181   29.6937    1.0593 H   0  0  0  0  0  0  0  0  0  0  0  0
    0.5083   25.7391    2.8485 H   0  0  0  0  0  0  0  0  0  0  0  0
    3.2126   23.9940    2.3349 H   0  0  0  0  0  0  0  0  0  0  0  0
    3.6576   25.7994    1.6320 H   0  0  0  0  0  0  0  0  0  0  0  0
    1.2515   24.5599    2.9128 H   0  0  0  0  0  0  0  0  0  0  0  0
   -5.6307   26.6716    4.9127 H   0  0  0  0  0  0  0  0  0  0  0  0
   -6.0287   28.7593    4.4455 H   0  0  0  0  0  0  0  0  0  0  0  0
   -5.6399   30.1729    3.8781 H   0  0  0  0  0  0  0  0  0  0  0  0
   -4.2784   31.5874    2.9395 H   0  0  0  0  0  0  0  0  0  0  0  0
   -0.0188   28.5533    2.2148 H   0  0  0  0  0  0  0  0  0  0  0  0
   -0.1913   25.9353    3.0571 H   0  0  0  0  0  0  0  0  0  0  0  0
    1.2264   28.9819    1.6132 H   0  0  0  0  0  0  0  0  0  0  0  0
    0.0294   28.1262    2.3234 H   0  0  0  0  0  0  0  0  0  0  0  0
    2.0150   30.0032    1.0097 H   0  0  0  0  0  0  0  0  0  0  0  0
    2.7896   31.0046    0.4175 H   0  0  0  0  0  0  0  0  0  0  0  0
    1.8867   33.0997    0.1405 H   0  0  0  0  0  0  0  0  0  0  0  0
    0.2422   33.4474    0.6644 H   0  0  0  0  0  0  0  0  0  0  0  0
   -1.7551   30.9974    2.1524 H   0  0  0  0  0  0  0  0  0  0  0  0
   -2.8091   34.0298    1.6552 H   0  0  0  0  0  0  0  0  0  0  0  0
   -4.0890   32.5363    2.5860 H   0  0  0  0  0  0  0  0  0  0  0  0
   -3.3832   30.7484    2.8470 H   0  0  0  0  0  0  0  0  0  0  0  0
  1  2  1  0
  2  3  1  0
  3  4  1  0
  3  5  1  0
  5  6  1  0
  6  7  1  0
  7  8  1  0
  8  9  1  0
  9 10  1  0
 10 11  1  0
 11 12  1  0
 12 13  1  0
 11 14  1  0
 14 15  1  0
 14 16  1  0
  8 17  1  0
 17 18  1  0
 18 19  1  0
 19 20  1  0
 20 21  1  0
 21 22  1  0
 21 23  1  0
 23 24  1  0
 17 25  1  0
 25 26  1  0
 26 27  1  0
 27 28  1  0
 28 29  1  0
 29 30  1  0
 30 31  1  0
 31 32  1  0
 31 33  1  0
 30 34  1  0
 34 35  1  0
 35 36  1  0
 36 37  1  0
 37 38  1  0
 38 39  1  0
 39 40  1  0
  6  2  1  0
 25  8  1  0
 29 27  1  0
 40 30  1  0
 23 20  1  0
 27 25  1  0
 37 35  1  0
 40 38  1  0
  1 41  1  0
  1 42  1  0
  1 43  1  0
  3 44  1  0
  4 45  1  0
  4 46  1  0
  4 47  1  0
  5 48  1  0
  5 49  1  0
  6 50  1  0
  7 51  1  0
  7 52  1  0
  9 53  1  0
  9 54  1  0
 10 55  1  0
 10 56  1  0
 11 57  1  0
 12 58  1  0
 12 59  1  0
 14 60  1  0
 15 61  1  0
 15 62  1  0
 15 63  1  0
 16 64  1  0
 16 65  1  0
 16 66  1  0
 17 67  1  0
 19 68  1  0
 19 69  1  0
 20 70  1  0
 21 71  1  0
 22 72  1  0
 22 73  1  0
 22 74  1  0
 23 75  1  0
 24 76  1  0
 24 77  1  0
 24 78  1  0
 26 79  1  0
 26 80  1  0
 28 81  1  0
 28 82  1  0
 31 83  1  0
 32 84  1  0
 34 85  1  0
 34 86  1  0
 35 87  1  0
 36 88  1  0
 36 89  1  0
 37 90  1  0
 38 91  1  0
 39 92  1  0
 39 93  1  0
 40 94  1  0
M  END
