
     RDKit          2D

 70 76  0  0  0  0  0  0  0  0999 V2000
    5.2502   18.9957    6.0368 C   0  0  0  0  0  0  0  0  0  0  0  0
    5.5743   20.4553    5.9163 C   0  0  0  0  0  0  0  0  0  0  0  0
    4.9129   21.4480    6.8259 C   0  0  0  0  0  0  0  0  0  0  0  0
    6.0731   21.2088    7.7459 C   0  0  0  0  0  0  0  0  0  0  0  0
    4.9939   22.1749    8.1355 C   0  0  0  0  0  0  0  0  0  0  0  0
    4.0335   23.1722    8.7125 C   0  0  0  0  0  0  0  0  0  0  0  0
    2.7549   23.6891    8.1225 C   0  0  0  0  0  0  0  0  0  0  0  0
    2.1209   23.3361    6.8097 C   0  0  0  0  0  0  0  0  0  0  0  0
    1.1605   24.3334    7.3867 C   0  0  0  0  0  0  0  0  0  0  0  0
    1.8501   24.6389    8.6834 C   0  0  0  0  0  0  0  0  0  0  0  0
    0.1374   24.3742    6.2906 C   0  0  0  0  0  0  0  0  0  0  0  0
   -0.7558   24.2647    5.0904 O   0  0  0  0  0  0  0  0  0  0  0  0
   -2.0463   24.9786    4.8169 C   0  0  0  0  0  0  0  0  0  0  0  0
   -2.7624   25.9782    5.6759 C   0  0  0  0  0  0  0  0  0  0  0  0
   -3.6315   26.9840    6.3711 C   0  0  0  0  0  0  0  0  0  0  0  0
   -4.1194   27.9409    7.4181 B   0  0  0  0  0  0  0  0  0  0  0  0
   -5.4028   28.6892    7.2105 C   0  0  0  0  0  0  0  0  0  0  0  0
   -6.6862   29.4376    7.0029 C   0  0  0  0  0  0  0  0  0  0  0  0
   -6.4856   30.1443    8.3107 C   0  0  0  0  0  0  0  0  0  0  0  0
   -7.7689   30.8926    8.1032 C   0  0  0  0  0  0  0  0  0  0  0  0
   -7.9695   30.1859    6.7954 C   0  0  0  0  0  0  0  0  0  0  0  0
   -8.1701   29.4792    5.4876 N   0  0  0  0  0  0  0  0  0  0  0  0
   -2.3649   26.5110    7.0206 C   0  0  0  0  0  0  0  0  0  0  0  0
   -1.1529   26.1756    7.8384 C   0  0  0  0  0  0  0  0  0  0  0  0
   -1.8691   27.1752    8.6974 O   0  0  0  0  0  0  0  0  0  0  0  0
   -0.0393   25.2246    7.5135 C   0  0  0  0  0  0  0  0  0  0  0  0
    2.6088   22.3792    5.7626 C   0  0  0  0  0  0  0  0  0  0  0  0
    2.9126   21.4794    4.6016 C   0  0  0  0  0  0  0  0  0  0  0  0
    1.7250   21.7671    3.7316 C   0  0  0  0  0  0  0  0  0  0  0  0
    3.8514   21.5390    5.7699 C   0  0  0  0  0  0  0  0  0  0  0  0
    5.9116   18.0031    5.1273 H   0  0  0  0  0  0  0  0  0  0  0  0
    4.7265   18.7476    6.5842 H   0  0  0  0  0  0  0  0  0  0  0  0
    6.5762   20.7463    4.8385 H   0  0  0  0  0  0  0  0  0  0  0  0
    6.6038   20.6825    7.4686 H   0  0  0  0  0  0  0  0  0  0  0  0
    6.9663   21.3182    8.9460 H   0  0  0  0  0  0  0  0  0  0  0  0
    5.7893   22.3835    9.3901 H   0  0  0  0  0  0  0  0  0  0  0  0
    5.0950   23.0813    9.7685 H   0  0  0  0  0  0  0  0  0  0  0  0
    3.6954   24.0840    9.8546 H   0  0  0  0  0  0  0  0  0  0  0  0
    2.8359   24.4159    9.4321 H   0  0  0  0  0  0  0  0  0  0  0  0
    1.6381   24.6383    8.4410 H   0  0  0  0  0  0  0  0  0  0  0  0
    1.0595   23.4270    5.7537 H   0  0  0  0  0  0  0  0  0  0  0  0
    2.4008   25.0591   10.0138 H   0  0  0  0  0  0  0  0  0  0  0  0
    0.8455   25.6279    9.1961 H   0  0  0  0  0  0  0  0  0  0  0  0
    3.0811   23.7825    8.6504 H   0  0  0  0  0  0  0  0  0  0  0  0
   -0.8651   25.3636    6.8063 H   0  0  0  0  0  0  0  0  0  0  0  0
   -1.8696   24.1282    3.5940 H   0  0  0  0  0  0  0  0  0  0  0  0
   -3.2583   25.3140    3.9991 H   0  0  0  0  0  0  0  0  0  0  0  0
   -3.7855   26.0191    4.5797 H   0  0  0  0  0  0  0  0  0  0  0  0
   -4.7286   27.1248    5.3580 H   0  0  0  0  0  0  0  0  0  0  0  0
   -3.3242   28.1495    8.6727 H   0  0  0  0  0  0  0  0  0  0  0  0
   -5.0720   29.2634    8.5562 H   0  0  0  0  0  0  0  0  0  0  0  0
   -5.5785   28.0188    5.8802 H   0  0  0  0  0  0  0  0  0  0  0  0
   -6.7288   28.6449    5.7302 H   0  0  0  0  0  0  0  0  0  0  0  0
   -6.2850   30.8510    9.6185 H   0  0  0  0  0  0  0  0  0  0  0  0
   -5.1873   29.4876    8.6762 H   0  0  0  0  0  0  0  0  0  0  0  0
   -9.0522   31.6409    7.8956 H   0  0  0  0  0  0  0  0  0  0  0  0
   -7.5683   31.5993    9.4110 H   0  0  0  0  0  0  0  0  0  0  0  0
   -9.2528   30.9342    6.5878 H   0  0  0  0  0  0  0  0  0  0  0  0
   -8.6633   28.0628    5.4684 H   0  0  0  0  0  0  0  0  0  0  0  0
   -7.9283   30.0343    4.1152 H   0  0  0  0  0  0  0  0  0  0  0  0
   -2.7309   27.4321    8.1465 H   0  0  0  0  0  0  0  0  0  0  0  0
   -0.2597   26.2850    9.0385 H   0  0  0  0  0  0  0  0  0  0  0  0
   -1.2922   27.5747   10.0231 H   0  0  0  0  0  0  0  0  0  0  0  0
    0.3919   25.7337    8.8570 H   0  0  0  0  0  0  0  0  0  0  0  0
    1.3364   22.8721    5.1397 H   0  0  0  0  0  0  0  0  0  0  0  0
    3.6287   20.4798    3.7426 H   0  0  0  0  0  0  0  0  0  0  0  0
    0.5375   22.0548    2.8616 H   0  0  0  0  0  0  0  0  0  0  0  0
    2.5512   21.4873    2.5113 H   0  0  0  0  0  0  0  0  0  0  0  0
    0.7603   22.0799    4.8367 H   0  0  0  0  0  0  0  0  0  0  0  0
    4.5432   20.5421    4.8878 H   0  0  0  0  0  0  0  0  0  0  0  0
  1  2  2  3
  2  3  1  0
  3  4  1  0
  4  5  1  0
  5  6  1  0
  6  7  1  0
  7  8  1  0
  8  9  1  0
  9 10  1  0
  9 11  1  0
 11 12  1  0
 12 13  1  0
 13 14  1  0
 14 15  1  0
 15 16  1  0
 16 17  1  0
 17 18  1  0
 18 19  1  0
 19 20  1  0
 20 21  1  0
 21 22  1  0
 15 23  1  0
 23 24  1  0
 24 25  1  0
 24 26  1  0
  8 27  1  0
 27 28  1  0
 28 29  1  0
 28 30  1  0
  5  3  1  0
 26  9  1  0
 30 27  1  0
 30  3  1  0
 26 11  1  0
 23 14  1  0
 21 18  1  0
  1 31  1  0
  1 32  1  0
  2 33  1  0
  4 34  1  0
  4 35  1  0
  5 36  1  0
  6 37  1  0
  6 38  1  0
  7 39  1  0
  7 40  1  0
  8 41  1  0
 10 42  1  0
 10 43  1  0
 10 44  1  0
 11 45  1  0
 13 46  1  0
 13 47  1  0
 14 48  1  0
 15 49  1  0
 16 50  1  0
 17 51  1  0
 17 52  1  0
 18 53  1  0
 19 54  1  0
 19 55  1  0
 20 56  1  0
 20 57  1  0
 21 58  1  0
 22 59  1  0
 22 60  1  0
 23 61  1  0
 24 62  1  0
 25 63  1  0
 26 64  1  0
 27 65  1  0
 28 66  1  0
 29 67  1  0
 29 68  1  0
 29 69  1  0
 30 70  1  0
M  END
