
     RDKit          2D

 45 48  0  0  0  0  0  0  0  0999 V2000
   20.2352  -17.9160    7.1141 C   0  0  0  0  0  0  0  0  0  0  0  0
   19.9201  -17.1929    5.8382 C   0  0  0  0  0  0  0  0  0  0  0  0
   19.6050  -16.4697    4.5623 C   0  0  0  0  0  0  0  0  0  0  0  0
   19.2899  -15.7467    3.2866 C   0  0  0  0  0  0  0  0  0  0  0  0
   18.9748  -15.0235    2.0107 C   0  0  0  0  0  0  0  0  0  0  0  0
   18.6597  -14.3003    0.7348 C   0  0  0  0  0  0  0  0  0  0  0  0
   18.3446  -13.5772   -0.5410 C   0  0  0  0  0  0  0  0  0  0  0  0
   18.0295  -12.8541   -1.8169 C   0  0  0  0  0  0  0  0  0  0  0  0
   19.4004  -12.7832   -2.4215 C   0  0  0  0  0  0  0  0  0  0  0  0
   20.7713  -12.7123   -3.0262 C   0  0  0  0  0  0  0  0  0  0  0  0
   19.5994  -12.1227   -3.7535 C   0  0  0  0  0  0  0  0  0  0  0  0
   18.4276  -11.5330   -4.4808 C   0  0  0  0  0  0  0  0  0  0  0  0
   19.1167  -11.0148   -5.7082 C   0  0  0  0  0  0  0  0  0  0  0  0
   19.8058  -10.4965   -6.9356 C   0  0  0  0  0  0  0  0  0  0  0  0
   20.4949   -9.9783   -8.1630 C   0  0  0  0  0  0  0  0  0  0  0  0
   21.1840   -9.4600   -9.3904 C   0  0  0  0  0  0  0  0  0  0  0  0
   18.2285  -12.1936   -3.1488 C   0  0  0  0  0  0  0  0  0  0  0  0
   20.5502  -18.6392    8.3899 H   0  0  0  0  0  0  0  0  0  0  0  0
   18.7871  -17.8631    7.5017 H   0  0  0  0  0  0  0  0  0  0  0  0
   21.6832  -17.9689    6.7264 H   0  0  0  0  0  0  0  0  0  0  0  0
   18.5257  -17.7449    5.8697 H   0  0  0  0  0  0  0  0  0  0  0  0
   21.3145  -16.6409    5.8067 H   0  0  0  0  0  0  0  0  0  0  0  0
   21.0532  -16.5217    4.1753 H   0  0  0  0  0  0  0  0  0  0  0  0
   18.1568  -16.4178    4.9495 H   0  0  0  0  0  0  0  0  0  0  0  0
   17.8428  -15.6883    3.6770 H   0  0  0  0  0  0  0  0  0  0  0  0
   20.7370  -15.8050    2.8960 H   0  0  0  0  0  0  0  0  0  0  0  0
   20.4306  -14.7113    1.8281 H   0  0  0  0  0  0  0  0  0  0  0  0
   17.5190  -15.3356    2.1932 H   0  0  0  0  0  0  0  0  0  0  0  0
   17.2123  -14.2439    1.1244 H   0  0  0  0  0  0  0  0  0  0  0  0
   20.1071  -14.3568    0.3453 H   0  0  0  0  0  0  0  0  0  0  0  0
   19.7920  -13.6340   -0.9307 H   0  0  0  0  0  0  0  0  0  0  0  0
   16.8972  -13.5205   -0.1514 H   0  0  0  0  0  0  0  0  0  0  0  0
   16.5491  -12.6738   -1.6553 H   0  0  0  0  0  0  0  0  0  0  0  0
   21.5625  -13.4109   -1.9603 H   0  0  0  0  0  0  0  0  0  0  0  0
   21.8675  -12.3989   -4.0010 H   0  0  0  0  0  0  0  0  0  0  0  0
   17.0163  -11.1234   -4.7818 H   0  0  0  0  0  0  0  0  0  0  0  0
   17.8052  -10.5074   -6.2303 H   0  0  0  0  0  0  0  0  0  0  0  0
   20.4281  -11.5221   -5.1860 H   0  0  0  0  0  0  0  0  0  0  0  0
   21.1172  -11.0043   -6.4136 H   0  0  0  0  0  0  0  0  0  0  0  0
   18.4943   -9.9888   -7.4575 H   0  0  0  0  0  0  0  0  0  0  0  0
   19.2461   -9.2455   -8.5547 H   0  0  0  0  0  0  0  0  0  0  0  0
   21.7438  -10.7110   -7.7712 H   0  0  0  0  0  0  0  0  0  0  0  0
   21.8731   -8.9418  -10.6178 H   0  0  0  0  0  0  0  0  0  0  0  0
   22.5075   -9.8859   -8.8272 H   0  0  0  0  0  0  0  0  0  0  0  0
   19.8606   -9.0341   -9.9536 H   0  0  0  0  0  0  0  0  0  0  0  0
  1  2  1  0
  2  3  1  0
  3  4  1  0
  4  5  1  0
  5  6  1  0
  6  7  1  0
  7  8  1  0
  8  9  1  0
  9 10  1  0
 10 11  1  0
 11 12  1  0
 12 13  1  0
 13 14  1  0
 14 15  1  0
 15 16  1  0
 12 17  1  0
 17  8  1  0
 11  9  1  0
 17  9  1  0
 17 11  1  0
  1 18  1  0
  1 19  1  0
  1 20  1  0
  2 21  1  0
  2 22  1  0
  3 23  1  0
  3 24  1  0
  4 25  1  0
  4 26  1  0
  5 27  1  0
  5 28  1  0
  6 29  1  0
  6 30  1  0
  7 31  1  0
  7 32  1  0
  8 33  1  0
 10 34  1  0
 10 35  1  0
 12 36  1  0
 13 37  1  0
 13 38  1  0
 14 39  1  0
 14 40  1  0
 15 41  1  0
 15 42  1  0
 16 43  1  0
 16 44  1  0
 16 45  1  0
M  END
