
     RDKit          2D

 60 67  0  0  0  0  0  0  0  0999 V2000
   18.3841  -26.0478   -5.6763 C   0  0  0  0  0  0  0  0  0  0  0  0
   18.4817  -25.2238   -6.9259 C   0  0  0  0  0  0  0  0  0  0  0  0
   18.5794  -24.3998   -8.1755 C   0  0  0  0  0  0  0  0  0  0  0  0
   19.9583  -24.7773   -8.6294 C   0  0  0  0  0  0  0  0  0  0  0  0
   19.1442  -23.8063   -9.4320 C   0  0  0  0  0  0  0  0  0  0  0  0
   17.9953  -22.9363   -9.8485 C   0  0  0  0  0  0  0  0  0  0  0  0
   16.8465  -22.0665  -10.2649 C   0  0  0  0  0  0  0  0  0  0  0  0
   17.6228  -21.6166  -11.4669 O   0  0  0  0  0  0  0  0  0  0  0  0
   19.0059  -22.1451  -11.7073 C   0  0  0  0  0  0  0  0  0  0  0  0
   19.5264  -21.5242  -12.9697 C   0  0  0  0  0  0  0  0  0  0  0  0
   20.9095  -22.0526  -13.2101 C   0  0  0  0  0  0  0  0  0  0  0  0
   21.8020  -21.6965  -14.3618 C   0  0  0  0  0  0  0  0  0  0  0  0
   20.9120  -20.7362  -15.0939 C   0  0  0  0  0  0  0  0  0  0  0  0
   22.1133  -20.7143  -15.9919 C   0  0  0  0  0  0  0  0  0  0  0  0
   22.1148  -19.8556  -17.2217 C   0  0  0  0  0  0  0  0  0  0  0  0
   20.9149  -19.0188  -17.5535 C   0  0  0  0  0  0  0  0  0  0  0  0
   19.7136  -19.0407  -16.6555 O   0  0  0  0  0  0  0  0  0  0  0  0
   19.7121  -19.8994  -15.4257 C   0  0  0  0  0  0  0  0  0  0  0  0
   22.2747  -22.6645  -13.3181 C   0  0  0  0  0  0  0  0  0  0  0  0
   21.4015  -23.0603  -12.1237 C   0  0  0  0  0  0  0  0  0  0  0  0
   20.1547  -23.0149  -11.2909 C   0  0  0  0  0  0  0  0  0  0  0  0
   20.2526  -22.1904  -12.5401 C   0  0  0  0  0  0  0  0  0  0  0  0
   15.6975  -21.1966  -10.6813 C   0  0  0  0  0  0  0  0  0  0  0  0
   14.9210  -21.6469   -9.4795 C   0  0  0  0  0  0  0  0  0  0  0  0
   13.7722  -20.7770   -9.8959 N   0  0  0  0  0  0  0  0  0  0  0  0
   14.5487  -20.3267  -11.0978 C   0  0  0  0  0  0  0  0  0  0  0  0
   15.3252  -19.8765  -12.2995 O   0  0  0  0  0  0  0  0  0  0  0  0
   18.2864  -26.8719   -4.4267 H   0  0  0  0  0  0  0  0  0  0  0  0
   18.0604  -24.8136   -4.8877 H   0  0  0  0  0  0  0  0  0  0  0  0
   18.7078  -27.2821   -6.4649 H   0  0  0  0  0  0  0  0  0  0  0  0
   19.4448  -26.1158   -7.2414 H   0  0  0  0  0  0  0  0  0  0  0  0
   17.3917  -24.3265   -6.4193 H   0  0  0  0  0  0  0  0  0  0  0  0
   17.3410  -23.8858   -8.0181 H   0  0  0  0  0  0  0  0  0  0  0  0
   21.2048  -24.8232   -9.4626 H   0  0  0  0  0  0  0  0  0  0  0  0
   20.4451  -25.6542   -7.7257 H   0  0  0  0  0  0  0  0  0  0  0  0
   20.2222  -23.6310  -10.4601 H   0  0  0  0  0  0  0  0  0  0  0  0
   19.0270  -22.7096  -10.9134 H   0  0  0  0  0  0  0  0  0  0  0  0
   17.1754  -23.2435   -8.8208 H   0  0  0  0  0  0  0  0  0  0  0  0
   16.2159  -22.6190   -9.0210 H   0  0  0  0  0  0  0  0  0  0  0  0
   18.1939  -20.8359  -12.9943 H   0  0  0  0  0  0  0  0  0  0  0  0
   19.4636  -20.9403  -13.7593 H   0  0  0  0  0  0  0  0  0  0  0  0
   22.4806  -21.7480  -14.7768 H   0  0  0  0  0  0  0  0  0  0  0  0
   20.1756  -20.8176  -14.4461 H   0  0  0  0  0  0  0  0  0  0  0  0
   23.4787  -21.0285  -16.5274 H   0  0  0  0  0  0  0  0  0  0  0  0
   22.4471  -21.2344  -15.4884 H   0  0  0  0  0  0  0  0  0  0  0  0
   22.5902  -19.2095  -18.4893 H   0  0  0  0  0  0  0  0  0  0  0  0
   23.4797  -20.4680  -17.3301 H   0  0  0  0  0  0  0  0  0  0  0  0
   20.0249  -18.0585  -18.2856 H   0  0  0  0  0  0  0  0  0  0  0  0
   21.8071  -18.6633  -18.7059 H   0  0  0  0  0  0  0  0  0  0  0  0
   19.0815  -20.4509  -14.1815 H   0  0  0  0  0  0  0  0  0  0  0  0
   18.3472  -19.2870  -15.3173 H   0  0  0  0  0  0  0  0  0  0  0  0
   23.6764  -23.2620  -13.4733 H   0  0  0  0  0  0  0  0  0  0  0  0
   20.2262  -23.8977  -10.0803 H   0  0  0  0  0  0  0  0  0  0  0  0
   20.1812  -21.3077  -13.7507 H   0  0  0  0  0  0  0  0  0  0  0  0
   16.4741  -20.7463  -11.8831 H   0  0  0  0  0  0  0  0  0  0  0  0
   14.1445  -22.0971   -8.2778 H   0  0  0  0  0  0  0  0  0  0  0  0
   15.9667  -22.5651   -8.9197 H   0  0  0  0  0  0  0  0  0  0  0  0
   12.4107  -20.4802   -9.3406 H   0  0  0  0  0  0  0  0  0  0  0  0
   13.3999  -19.4568  -11.5142 H   0  0  0  0  0  0  0  0  0  0  0  0
   14.7187  -18.8978  -13.2608 H   0  0  0  0  0  0  0  0  0  0  0  0
  1  2  1  0
  2  3  1  0
  3  4  1  0
  4  5  1  0
  5  6  1  0
  6  7  1  0
  7  8  1  0
  8  9  1  0
  9 10  1  0
 10 11  1  0
 11 12  1  0
 12 13  1  0
 13 14  1  0
 14 15  1  0
 15 16  1  0
 16 17  1  0
 17 18  1  0
 12 19  1  0
 19 20  1  0
 20 21  1  0
 21 22  1  0
  7 23  1  0
 23 24  1  0
 24 25  1  0
 25 26  1  0
 26 27  1  0
  5  3  1  0
 21  9  1  0
 26 23  1  0
 22  9  1  0
 19 11  1  0
 22 20  1  0
 20 11  1  0
 18 13  1  0
  1 28  1  0
  1 29  1  0
  1 30  1  0
  2 31  1  0
  2 32  1  0
  3 33  1  0
  4 34  1  0
  4 35  1  0
  5 36  1  0
  6 37  1  0
  6 38  1  0
  7 39  1  0
 10 40  1  0
 10 41  1  0
 12 42  1  0
 13 43  1  0
 14 44  1  0
 14 45  1  0
 15 46  1  0
 15 47  1  0
 16 48  1  0
 16 49  1  0
 18 50  1  0
 18 51  1  0
 19 52  1  0
 21 53  1  0
 22 54  1  0
 23 55  1  0
 24 56  1  0
 24 57  1  0
 25 58  1  0
 26 59  1  0
 27 60  1  0
M  END
