
     RDKit          2D

 66 72  0  0  0  0  0  0  0  0999 V2000
    3.8951   21.3303    9.3001 C   0  0  0  0  0  0  0  0  0  0  0  0
    2.9496   21.7019   10.4038 C   0  0  0  0  0  0  0  0  0  0  0  0
    2.0042   22.0735   11.5074 C   0  0  0  0  0  0  0  0  0  0  0  0
    2.2342   22.6380    9.4755 C   0  0  0  0  0  0  0  0  0  0  0  0
    1.5186   23.5742    8.5473 C   0  0  0  0  0  0  0  0  0  0  0  0
    2.3202   23.3645    7.2969 C   0  0  0  0  0  0  0  0  0  0  0  0
    3.3192   22.9063    6.2761 O   0  0  0  0  0  0  0  0  0  0  0  0
    3.5795   23.2185    4.8322 C   0  0  0  0  0  0  0  0  0  0  0  0
    2.9486   24.1182    3.8111 C   0  0  0  0  0  0  0  0  0  0  0  0
    2.9018   24.6682    2.4164 C   0  0  0  0  0  0  0  0  0  0  0  0
    1.7961   25.0783    3.8110 C   0  0  0  0  0  0  0  0  0  0  0  0
    0.7971   25.5365    4.8318 C   0  0  0  0  0  0  0  0  0  0  0  0
   -0.3834   26.3830    5.2054 C   0  0  0  0  0  0  0  0  0  0  0  0
   -1.5640   27.2296    5.5789 O   0  0  0  0  0  0  0  0  0  0  0  0
   -2.1949   28.1292    4.5577 N   0  0  0  0  0  0  0  0  0  0  0  0
   -3.3755   28.9758    4.9313 C   0  0  0  0  0  0  0  0  0  0  0  0
   -3.4214   29.5269    3.5370 C   0  0  0  0  0  0  0  0  0  0  0  0
   -4.6020   30.3735    3.9105 C   0  0  0  0  0  0  0  0  0  0  0  0
   -4.5561   29.8224    5.3049 C   0  0  0  0  0  0  0  0  0  0  0  0
    0.5368   25.2243    6.2756 C   0  0  0  0  0  0  0  0  0  0  0  0
   -0.2648   25.4339    7.5260 O   0  0  0  0  0  0  0  0  0  0  0  0
   -1.4173   26.3940    7.5259 C   0  0  0  0  0  0  0  0  0  0  0  0
   -1.3610   26.8682    6.1039 O   0  0  0  0  0  0  0  0  0  0  0  0
   -1.8737   26.2533    8.9478 C   0  0  0  0  0  0  0  0  0  0  0  0
   -1.7241   25.6316   10.3046 C   0  0  0  0  0  0  0  0  0  0  0  0
   -2.8961   26.4270   10.7983 O   0  0  0  0  0  0  0  0  0  0  0  0
   -3.0457   27.0487    9.4414 C   0  0  0  0  0  0  0  0  0  0  0  0
   -4.1355   28.0485    9.1905 O   0  0  0  0  0  0  0  0  0  0  0  0
   -3.6790   28.1892    7.7686 O   0  0  0  0  0  0  0  0  0  0  0  0
   -2.5893   27.1895    8.0195 C   0  0  0  0  0  0  0  0  0  0  0  0
    1.1677   24.3246    7.2968 C   0  0  0  0  0  0  0  0  0  0  0  0
    4.8406   20.9587    8.1966 H   0  0  0  0  0  0  0  0  0  0  0  0
    4.4888   20.4449   10.3554 H   0  0  0  0  0  0  0  0  0  0  0  0
    4.7193   20.3543   10.0863 H   0  0  0  0  0  0  0  0  0  0  0  0
    3.6652   20.7658   11.3320 H   0  0  0  0  0  0  0  0  0  0  0  0
    1.0587   22.4451   12.6110 H   0  0  0  0  0  0  0  0  0  0  0  0
    2.7150   21.1317   12.4335 H   0  0  0  0  0  0  0  0  0  0  0  0
    1.1834   23.0537   10.7227 H   0  0  0  0  0  0  0  0  0  0  0  0
    3.2552   22.1496    8.4912 H   0  0  0  0  0  0  0  0  0  0  0  0
    1.2130   23.1265   10.4598 H   0  0  0  0  0  0  0  0  0  0  0  0
    0.4684   24.1090    9.4753 H   0  0  0  0  0  0  0  0  0  0  0  0
    3.1812   22.3788    8.0299 H   0  0  0  0  0  0  0  0  0  0  0  0
    4.4810   22.8901    3.6792 H   0  0  0  0  0  0  0  0  0  0  0  0
    4.6253   22.2104    5.2061 H   0  0  0  0  0  0  0  0  0  0  0  0
    4.0256   23.5393    2.9422 H   0  0  0  0  0  0  0  0  0  0  0  0
    2.8548   25.2183    1.0217 H   0  0  0  0  0  0  0  0  0  0  0  0
    4.0812   23.8203    2.0423 H   0  0  0  0  0  0  0  0  0  0  0  0
    1.7254   25.5769    2.6176 H   0  0  0  0  0  0  0  0  0  0  0  0
    1.0324   26.0329    2.9418 H   0  0  0  0  0  0  0  0  0  0  0  0
    1.9344   25.4892    2.3750 H   0  0  0  0  0  0  0  0  0  0  0  0
    0.3114   26.3636    3.6786 H   0  0  0  0  0  0  0  0  0  0  0  0
   -0.4300   26.9334    3.8108 H   0  0  0  0  0  0  0  0  0  0  0  0
   -0.4811   25.9399    6.6351 H   0  0  0  0  0  0  0  0  0  0  0  0
   -1.5218   28.0590    3.2191 H   0  0  0  0  0  0  0  0  0  0  0  0
   -3.3295   28.4247    6.3256 H   0  0  0  0  0  0  0  0  0  0  0  0
   -3.4674   30.0780    2.1427 H   0  0  0  0  0  0  0  0  0  0  0  0
   -2.2553   28.7539    2.9962 H   0  0  0  0  0  0  0  0  0  0  0  0
   -5.7826   31.2201    4.2840 H   0  0  0  0  0  0  0  0  0  0  0  0
   -4.6479   30.9246    2.5162 H   0  0  0  0  0  0  0  0  0  0  0  0
   -4.5101   29.2712    6.6992 H   0  0  0  0  0  0  0  0  0  0  0  0
   -5.7367   30.6690    5.6784 H   0  0  0  0  0  0  0  0  0  0  0  0
   -0.6365   26.1464    6.4265 H   0  0  0  0  0  0  0  0  0  0  0  0
   -2.3550   27.8772    5.6099 H   0  0  0  0  0  0  0  0  0  0  0  0
   -1.5746   25.0099   11.6615 H   0  0  0  0  0  0  0  0  0  0  0  0
   -0.5522   24.8362    9.8110 H   0  0  0  0  0  0  0  0  0  0  0  0
    0.0950   24.8962    8.1756 H   0  0  0  0  0  0  0  0  0  0  0  0
  1  2  1  0
  2  3  1  0
  2  4  1  0
  4  5  1  0
  5  6  1  0
  6  7  1  0
  7  8  1  0
  8  9  1  0
  9 10  1  0
  9 11  1  0
 11 12  1  0
 12 13  1  0
 13 14  1  0
 14 15  1  0
 15 16  1  0
 16 17  1  0
 17 18  1  0
 18 19  1  0
 12 20  1  0
 20 21  1  0
 21 22  1  0
 22 23  1  0
 22 24  1  0
 24 25  1  0
 25 26  1  0
 26 27  1  0
 27 28  1  0
 28 29  1  0
 29 30  1  0
 20 31  1  0
 31  5  1  0
 31  6  1  0
 19 16  1  0
 30 22  1  0
 27 24  1  0
 30 24  1  0
 30 27  1  0
  1 32  1  0
  1 33  1  0
  1 34  1  0
  2 35  1  0
  3 36  1  0
  3 37  1  0
  3 38  1  0
  4 39  1  0
  4 40  1  0
  5 41  1  0
  6 42  1  0
  8 43  1  0
  8 44  1  0
  9 45  1  0
 10 46  1  0
 10 47  1  0
 10 48  1  0
 11 49  1  0
 11 50  1  0
 12 51  1  0
 13 52  1  0
 13 53  1  0
 15 54  1  0
 16 55  1  0
 17 56  1  0
 17 57  1  0
 18 58  1  0
 18 59  1  0
 19 60  1  0
 19 61  1  0
 20 62  1  0
 23 63  1  0
 25 64  1  0
 25 65  1  0
 31 66  1  0
M  END
