
     RDKit          2D

 53 54  0  0  0  0  0  0  0  0999 V2000
   -6.7399   27.0322    4.6012 C   0  0  0  0  0  0  0  0  0  0  0  0
   -5.6758   26.0630    4.1786 C   0  0  0  0  0  0  0  0  0  0  0  0
   -5.7483   24.6309    4.6186 O   0  0  0  0  0  0  0  0  0  0  0  0
   -4.6843   23.6617    4.1960 C   0  0  0  0  0  0  0  0  0  0  0  0
   -3.6203   22.6925    3.7735 C   0  0  0  0  0  0  0  0  0  0  0  0
   -4.3185   21.5982    4.5250 F   0  0  0  0  0  0  0  0  0  0  0  0
   -2.5563   21.7233    3.3509 C   0  0  0  0  0  0  0  0  0  0  0  0
   -1.7952   20.4384    3.2110 C   0  0  0  0  0  0  0  0  0  0  0  0
   -0.5315   20.3993    2.4038 C   0  0  0  0  0  0  0  0  0  0  0  0
   -0.0289   21.6451    1.7365 C   0  0  0  0  0  0  0  0  0  0  0  0
    1.0351   20.6760    1.3139 C   0  0  0  0  0  0  0  0  0  0  0  0
    2.0991   19.7068    0.8913 O   0  0  0  0  0  0  0  0  0  0  0  0
   -0.7900   22.9301    1.8764 C   0  0  0  0  0  0  0  0  0  0  0  0
   -1.5511   24.2150    2.0162 C   0  0  0  0  0  0  0  0  0  0  0  0
   -2.0537   22.9692    2.6835 C   0  0  0  0  0  0  0  0  0  0  0  0
   -3.2227   23.7337    3.2303 C   0  0  0  0  0  0  0  0  0  0  0  0
   -4.3918   24.4981    3.7771 C   0  0  0  0  0  0  0  0  0  0  0  0
   -5.5608   25.2626    4.3239 C   0  0  0  0  0  0  0  0  0  0  0  0
   -5.7101   26.7237    4.0193 N   0  0  0  0  0  0  0  0  0  0  0  0
   -6.5806   24.5659    5.1752 C   0  0  0  0  0  0  0  0  0  0  0  0
   -7.6003   23.8692    6.0265 C   0  0  0  0  0  0  0  0  0  0  0  0
   -8.6201   23.1725    6.8777 C   0  0  0  0  0  0  0  0  0  0  0  0
   -7.2202   22.5566    5.4077 O   0  0  0  0  0  0  0  0  0  0  0  0
   -6.6674   28.4644    4.1611 H   0  0  0  0  0  0  0  0  0  0  0  0
   -7.9376   26.7417    5.4562 H   0  0  0  0  0  0  0  0  0  0  0  0
   -4.5394   26.5260    3.3159 H   0  0  0  0  0  0  0  0  0  0  0  0
   -4.2648   24.9577    3.5681 H   0  0  0  0  0  0  0  0  0  0  0  0
   -5.2471   22.4577    4.8915 H   0  0  0  0  0  0  0  0  0  0  0  0
   -3.2002   23.9889    3.1465 H   0  0  0  0  0  0  0  0  0  0  0  0
   -3.4284   20.8141    4.1649 H   0  0  0  0  0  0  0  0  0  0  0  0
   -2.9316   19.9754    4.0736 H   0  0  0  0  0  0  0  0  0  0  0  0
   -1.4287   18.9926    3.3707 H   0  0  0  0  0  0  0  0  0  0  0  0
   -0.6039   18.9671    2.8439 H   0  0  0  0  0  0  0  0  0  0  0  0
    0.6623   19.7010    1.8228 H   0  0  0  0  0  0  0  0  0  0  0  0
    0.8432   22.5543    0.9224 H   0  0  0  0  0  0  0  0  0  0  0  0
    1.7324   21.7698    0.5608 H   0  0  0  0  0  0  0  0  0  0  0  0
    0.4727   19.4720    2.0099 H   0  0  0  0  0  0  0  0  0  0  0  0
    3.2356   20.1697    0.0287 H   0  0  0  0  0  0  0  0  0  0  0  0
    0.2297   23.6268    1.0251 H   0  0  0  0  0  0  0  0  0  0  0  0
   -0.6790   25.1243    1.2021 H   0  0  0  0  0  0  0  0  0  0  0  0
   -2.5222   25.3104    2.3440 H   0  0  0  0  0  0  0  0  0  0  0  0
   -3.9936   22.7096    4.0097 H   0  0  0  0  0  0  0  0  0  0  0  0
   -2.8661   25.0635    2.6351 H   0  0  0  0  0  0  0  0  0  0  0  0
   -5.1631   23.4739    4.5556 H   0  0  0  0  0  0  0  0  0  0  0  0
   -3.8884   25.7443    3.1111 H   0  0  0  0  0  0  0  0  0  0  0  0
   -6.7228   27.7669    4.3884 H   0  0  0  0  0  0  0  0  0  0  0  0
   -7.4589   25.7569    5.4199 H   0  0  0  0  0  0  0  0  0  0  0  0
   -5.9508   23.2049    5.1379 H   0  0  0  0  0  0  0  0  0  0  0  0
   -7.9805   25.1816    6.6452 H   0  0  0  0  0  0  0  0  0  0  0  0
   -9.6399   22.4758    7.7291 H   0  0  0  0  0  0  0  0  0  0  0  0
   -7.9883   21.8124    6.8438 H   0  0  0  0  0  0  0  0  0  0  0  0
   -9.3819   24.4571    7.0165 H   0  0  0  0  0  0  0  0  0  0  0  0
   -7.8075   21.2107    5.7135 H   0  0  0  0  0  0  0  0  0  0  0  0
  1  2  2  3
  2  3  1  0
  3  4  1  0
  4  5  1  0
  5  6  1  0
  5  7  1  0
  7  8  1  0
  8  9  1  0
  9 10  1  0
 10 11  1  0
 11 12  1  0
 10 13  1  0
 13 14  1  0
 14 15  1  0
 15 16  1  0
 16 17  1  0
 17 18  1  0
 18 19  2  3
 18 20  1  0
 20 21  1  0
 21 22  1  0
 21 23  1  0
 15  7  1  0
 15 13  1  0
  1 24  1  0
  1 25  1  0
  2 26  1  0
  4 27  1  0
  4 28  1  0
  5 29  1  0
  7 30  1  0
  8 31  1  0
  8 32  1  0
  9 33  1  0
  9 34  1  0
 10 35  1  0
 11 36  1  0
 11 37  1  0
 12 38  1  0
 13 39  1  0
 14 40  1  0
 14 41  1  0
 16 42  1  0
 16 43  1  0
 17 44  1  0
 17 45  1  0
 19 46  1  0
 20 47  1  0
 20 48  1  0
 21 49  1  0
 22 50  1  0
 22 51  1  0
 22 52  1  0
 23 53  1  0
M  END
