
     RDKit          2D

 52 54  0  0  0  0  0  0  0  0999 V2000
   17.2647  -24.4170  -12.0636 C   0  0  0  0  0  0  0  0  0  0  0  0
   17.2604  -23.1696  -11.2305 C   0  0  0  0  0  0  0  0  0  0  0  0
   17.2561  -21.9222  -10.3974 C   0  0  0  0  0  0  0  0  0  0  0  0
   17.2517  -20.6749   -9.5643 C   0  0  0  0  0  0  0  0  0  0  0  0
   17.2474  -19.4275   -8.7312 C   0  0  0  0  0  0  0  0  0  0  0  0
   18.4661  -19.9103   -8.0021 C   0  0  0  0  0  0  0  0  0  0  0  0
   19.6848  -20.3930   -7.2729 C   0  0  0  0  0  0  0  0  0  0  0  0
   19.6795  -19.1465   -6.4386 Cl  0  0  0  0  0  0  0  0  0  0  0  0
   19.6901  -21.6396   -8.1072 C   0  0  0  0  0  0  0  0  0  0  0  0
   20.9089  -22.1224   -7.3780 O   0  0  0  0  0  0  0  0  0  0  0  0
   20.9035  -20.8758   -6.5437 C   0  0  0  0  0  0  0  0  0  0  0  0
   17.2431  -18.1802   -7.8982 C   0  0  0  0  0  0  0  0  0  0  0  0
   16.0244  -17.6973   -8.6273 N   0  0  0  0  0  0  0  0  0  0  0  0
   16.0287  -18.9448   -9.4604 C   0  0  0  0  0  0  0  0  0  0  0  0
   16.0330  -20.1921  -10.2935 C   0  0  0  0  0  0  0  0  0  0  0  0
   15.4847  -20.1636  -11.6894 N   0  0  0  0  0  0  0  0  0  0  0  0
   18.7284  -22.0779  -10.1567 N   0  0  0  0  0  0  0  0  0  0  0  0
   19.4685  -23.2354  -10.7586 C   0  0  0  0  0  0  0  0  0  0  0  0
   18.3332  -23.4659  -11.7115 C   0  0  0  0  0  0  0  0  0  0  0  0
   20.6039  -23.0050   -9.8058 C   0  0  0  0  0  0  0  0  0  0  0  0
   21.3440  -24.1625  -10.4077 C   0  0  0  0  0  0  0  0  0  0  0  0
   20.2087  -24.3930  -11.3605 C   0  0  0  0  0  0  0  0  0  0  0  0
   17.2691  -25.6643  -12.8967 H   0  0  0  0  0  0  0  0  0  0  0  0
   18.3650  -25.2460  -11.4702 H   0  0  0  0  0  0  0  0  0  0  0  0
   16.1319  -23.8737  -12.8830 H   0  0  0  0  0  0  0  0  0  0  0  0
   17.9148  -23.6247  -11.2197 H   0  0  0  0  0  0  0  0  0  0  0  0
   15.8680  -22.8631  -11.6967 H   0  0  0  0  0  0  0  0  0  0  0  0
   15.7837  -21.7666  -10.6381 H   0  0  0  0  0  0  0  0  0  0  0  0
   18.7040  -21.0066   -9.3892 H   0  0  0  0  0  0  0  0  0  0  0  0
   15.8335  -20.8010  -10.0364 H   0  0  0  0  0  0  0  0  0  0  0  0
   18.6192  -21.2069   -8.7404 H   0  0  0  0  0  0  0  0  0  0  0  0
   18.6101  -18.7313   -7.0859 H   0  0  0  0  0  0  0  0  0  0  0  0
   19.8440  -22.9357   -8.8463 H   0  0  0  0  0  0  0  0  0  0  0  0
   18.5543  -21.6358   -9.0869 H   0  0  0  0  0  0  0  0  0  0  0  0
   20.8981  -19.6292   -5.7094 H   0  0  0  0  0  0  0  0  0  0  0  0
   22.1222  -21.3586   -5.8145 H   0  0  0  0  0  0  0  0  0  0  0  0
   17.2387  -16.9328   -7.0650 H   0  0  0  0  0  0  0  0  0  0  0  0
   18.4521  -18.5072   -7.0728 H   0  0  0  0  0  0  0  0  0  0  0  0
   15.1596  -16.4740   -8.5538 H   0  0  0  0  0  0  0  0  0  0  0  0
   14.8100  -18.4619  -10.1895 H   0  0  0  0  0  0  0  0  0  0  0  0
   16.3735  -21.6489  -10.4009 H   0  0  0  0  0  0  0  0  0  0  0  0
   15.4890  -21.4110  -12.5225 H   0  0  0  0  0  0  0  0  0  0  0  0
   19.9747  -21.5494   -9.5106 H   0  0  0  0  0  0  0  0  0  0  0  0
   17.3990  -23.9850  -12.7641 H   0  0  0  0  0  0  0  0  0  0  0  0
   19.0252  -24.6868  -12.2407 H   0  0  0  0  0  0  0  0  0  0  0  0
   17.1890  -22.4960  -11.6915 H   0  0  0  0  0  0  0  0  0  0  0  0
   21.7392  -22.7745   -8.8529 H   0  0  0  0  0  0  0  0  0  0  0  0
   19.6110  -21.9376   -9.4523 H   0  0  0  0  0  0  0  0  0  0  0  0
   22.0841  -25.3201  -11.0097 H   0  0  0  0  0  0  0  0  0  0  0  0
   22.4793  -23.9321   -9.4549 H   0  0  0  0  0  0  0  0  0  0  0  0
   19.2861  -24.8967  -12.4307 H   0  0  0  0  0  0  0  0  0  0  0  0
   20.9488  -25.5506  -11.9625 H   0  0  0  0  0  0  0  0  0  0  0  0
  1  2  1  0
  2  3  1  0
  3  4  1  0
  4  5  1  0
  5  6  1  0
  6  7  1  0
  7  8  1  0
  7  9  1  0
  9 10  1  0
 10 11  1  0
  5 12  1  0
 12 13  1  0
 13 14  1  0
 14 15  1  0
 15 16  2  3
  3 17  1  0
 17 18  1  0
 18 19  1  0
 18 20  1  0
 20 21  1  0
 21 22  1  0
 14  5  1  0
 22 18  1  0
 11  7  1  0
  1 23  1  0
  1 24  1  0
  1 25  1  0
  2 26  1  0
  2 27  1  0
  3 28  1  0
  4 29  1  0
  4 30  1  0
  6 31  1  0
  6 32  1  0
  9 33  1  0
  9 34  1  0
 11 35  1  0
 11 36  1  0
 12 37  1  0
 12 38  1  0
 13 39  1  0
 14 40  1  0
 15 41  1  0
 16 42  1  0
 17 43  1  0
 19 44  1  0
 19 45  1  0
 19 46  1  0
 20 47  1  0
 20 48  1  0
 21 49  1  0
 21 50  1  0
 22 51  1  0
 22 52  1  0
M  END
