
     RDKit          2D

 33 34  0  0  0  0  0  0  0  0999 V2000
    1.5655   27.5671    5.1901 O   0  0  0  0  0  0  0  0  0  0  0  0
    2.1740   27.4213    4.5633 C   0  0  0  0  0  0  0  0  0  0  0  0
    3.5161   27.2818    5.2186 O   0  0  0  0  0  0  0  0  0  0  0  0
    4.8480   27.0279    4.5774 C   0  0  0  0  0  0  0  0  0  0  0  0
    5.1671   26.8507    3.1224 C   0  0  0  0  0  0  0  0  0  0  0  0
    4.2328   26.8836    1.9494 C   0  0  0  0  0  0  0  0  0  0  0  0
    3.8913   26.8036    0.4910 O   0  0  0  0  0  0  0  0  0  0  0  0
    2.7488   27.1019    1.9416 C   0  0  0  0  0  0  0  0  0  0  0  0
    1.8325   27.3412    3.1048 C   0  0  0  0  0  0  0  0  0  0  0  0
    0.5005   27.5951    3.7461 C   0  0  0  0  0  0  0  0  0  0  0  0
   -0.8315   27.8490    4.3873 C   0  0  0  0  0  0  0  0  0  0  0  0
   -1.4384   28.0802    3.0352 O   0  0  0  0  0  0  0  0  0  0  0  0
   -2.1636   28.1030    5.0285 C   0  0  0  0  0  0  0  0  0  0  0  0
   -3.1916   28.3499    6.0927 C   0  0  0  0  0  0  0  0  0  0  0  0
   -1.7506   28.1709    6.4690 C   0  0  0  0  0  0  0  0  0  0  0  0
    6.3224   26.8274    4.7673 H   0  0  0  0  0  0  0  0  0  0  0  0
    5.1895   27.1080    6.0358 H   0  0  0  0  0  0  0  0  0  0  0  0
    6.2189   26.6024    2.0821 H   0  0  0  0  0  0  0  0  0  0  0  0
    6.5763   26.6863    3.6092 H   0  0  0  0  0  0  0  0  0  0  0  0
    5.4752   26.6287    1.1484 H   0  0  0  0  0  0  0  0  0  0  0  0
    4.9714   26.5538   -0.5195 H   0  0  0  0  0  0  0  0  0  0  0  0
    1.4940   27.2143    1.1275 H   0  0  0  0  0  0  0  0  0  0  0  0
    2.7075   26.9744    0.4476 H   0  0  0  0  0  0  0  0  0  0  0  0
    0.7646   27.4047    2.0533 H   0  0  0  0  0  0  0  0  0  0  0  0
   -0.1537   27.5717    2.3965 H   0  0  0  0  0  0  0  0  0  0  0  0
    0.7880   27.6271    4.5832 H   0  0  0  0  0  0  0  0  0  0  0  0
   -0.1434   27.6147    5.5248 H   0  0  0  0  0  0  0  0  0  0  0  0
   -2.8675   28.4221    2.7335 H   0  0  0  0  0  0  0  0  0  0  0  0
   -3.1788   28.1541    3.9254 H   0  0  0  0  0  0  0  0  0  0  0  0
   -4.4242   28.4559    5.2445 H   0  0  0  0  0  0  0  0  0  0  0  0
   -3.7914   28.5599    7.4513 H   0  0  0  0  0  0  0  0  0  0  0  0
   -1.8500   28.3188    7.9583 H   0  0  0  0  0  0  0  0  0  0  0  0
   -0.4151   27.9771    6.5062 H   0  0  0  0  0  0  0  0  0  0  0  0
  1  2  2  0
  2  3  1  0
  3  4  1  0
  4  5  1  0
  5  6  1  0
  6  7  1  0
  6  8  1  0
  8  9  1  0
  9 10  1  0
 10 11  1  0
 11 12  1  0
 11 13  1  0
 13 14  1  0
 14 15  1  0
  9  2  1  0
 15 13  1  0
  4 16  1  0
  4 17  1  0
  5 18  1  0
  5 19  1  0
  6 20  1  0
  7 21  1  0
  8 22  1  0
  8 23  1  0
  9 24  1  0
 10 25  1  0
 10 26  1  0
 11 27  1  0
 12 28  1  0
 13 29  1  0
 14 30  1  0
 14 31  1  0
 15 32  1  0
 15 33  1  0
M  END
