
     RDKit          2D

 26 26  0  0  0  0  0  0  0  0999 V2000
   -4.6552   23.0800    3.2754 C   0  0  0  0  0  0  0  0  0  0  0  0
   -3.4874   23.1782    2.3391 C   0  0  0  0  0  0  0  0  0  0  0  0
   -3.0604   24.5155    1.8105 C   0  0  0  0  0  0  0  0  0  0  0  0
   -2.7467   21.9392    1.9316 C   0  0  0  0  0  0  0  0  0  0  0  0
   -3.6671   21.1105    2.7776 O   0  0  0  0  0  0  0  0  0  0  0  0
   -2.0059   20.7003    1.5239 C   0  0  0  0  0  0  0  0  0  0  0  0
   -1.0842   21.5291    0.6792 C   0  0  0  0  0  0  0  0  0  0  0  0
   -1.2650   19.4612    1.1163 C   0  0  0  0  0  0  0  0  0  0  0  0
   -2.1867   18.6323    1.9610 C   0  0  0  0  0  0  0  0  0  0  0  0
   -2.9275   19.8713    2.3686 C   0  0  0  0  0  0  0  0  0  0  0  0
   -5.3960   24.3189    3.6830 H   0  0  0  0  0  0  0  0  0  0  0  0
   -5.0622   22.1709    3.7269 H   0  0  0  0  0  0  0  0  0  0  0  0
   -2.6334   25.8527    1.2819 H   0  0  0  0  0  0  0  0  0  0  0  0
   -4.3951   25.0892    2.1838 H   0  0  0  0  0  0  0  0  0  0  0  0
   -1.7257   23.9416    1.4372 H   0  0  0  0  0  0  0  0  0  0  0  0
   -2.2605   22.5141    1.4650 H   0  0  0  0  0  0  0  0  0  0  0  0
   -4.5023   21.4682    3.3862 H   0  0  0  0  0  0  0  0  0  0  0  0
   -0.1626   22.3581   -0.1654 H   0  0  0  0  0  0  0  0  0  0  0  0
   -0.5843   20.8625    0.3789 H   0  0  0  0  0  0  0  0  0  0  0  0
   -1.4515   22.3150    0.8580 H   0  0  0  0  0  0  0  0  0  0  0  0
   -0.6716   19.8579    0.5919 H   0  0  0  0  0  0  0  0  0  0  0  0
   -0.5243   18.2222    0.7087 H   0  0  0  0  0  0  0  0  0  0  0  0
   -1.4459   17.3933    1.5533 H   0  0  0  0  0  0  0  0  0  0  0  0
   -3.1084   17.8034    2.8057 H   0  0  0  0  0  0  0  0  0  0  0  0
   -3.8491   19.0423    3.2132 H   0  0  0  0  0  0  0  0  0  0  0  0
   -3.6904   20.6826    2.8545 H   0  0  0  0  0  0  0  0  0  0  0  0
  1  2  2  3
  2  3  1  0
  2  4  1  0
  4  5  1  0
  4  6  1  0
  6  7  1  0
  6  8  1  0
  8  9  1  0
  9 10  1  0
 10  6  1  0
  1 11  1  0
  1 12  1  0
  3 13  1  0
  3 14  1  0
  3 15  1  0
  4 16  1  0
  5 17  1  0
  7 18  1  0
  7 19  1  0
  7 20  1  0
  8 21  1  0
  8 22  1  0
  9 23  1  0
  9 24  1  0
 10 25  1  0
 10 26  1  0
M  END
