
     RDKit          2D

 37 37  0  0  0  0  0  0  0  0999 V2000
   18.3391  -21.2534  -10.9050 C   0  0  0  0  0  0  0  0  0  0  0  0
   17.6992  -20.1381  -10.1327 C   0  0  0  0  0  0  0  0  0  0  0  0
   17.0593  -19.0228   -9.3603 C   0  0  0  0  0  0  0  0  0  0  0  0
   17.3444  -21.0999   -9.0377 C   0  0  0  0  0  0  0  0  0  0  0  0
   16.9895  -22.0618   -7.9428 C   0  0  0  0  0  0  0  0  0  0  0  0
   16.6347  -23.0236   -6.8478 C   0  0  0  0  0  0  0  0  0  0  0  0
   17.5390  -23.1938   -8.7592 C   0  0  0  0  0  0  0  0  0  0  0  0
   17.6575  -22.1538   -9.8335 C   0  0  0  0  0  0  0  0  0  0  0  0
   18.2314  -22.8110  -11.0537 C   0  0  0  0  0  0  0  0  0  0  0  0
   18.7799  -23.1821  -12.3996 C   0  0  0  0  0  0  0  0  0  0  0  0
   19.3284  -23.5532  -13.7455 Cl  0  0  0  0  0  0  0  0  0  0  0  0
   18.4676  -24.2573  -10.7334 C   0  0  0  0  0  0  0  0  0  0  0  0
   18.8082  -25.7179  -10.7085 O   0  0  0  0  0  0  0  0  0  0  0  0
   19.3821  -26.3750  -11.9285 Br  0  0  0  0  0  0  0  0  0  0  0  0
   18.0397  -24.4938   -9.3153 C   0  0  0  0  0  0  0  0  0  0  0  0
   18.9790  -22.3687  -11.6774 H   0  0  0  0  0  0  0  0  0  0  0  0
   18.0495  -20.8548  -11.5317 H   0  0  0  0  0  0  0  0  0  0  0  0
   18.1324  -20.9993  -11.6319 H   0  0  0  0  0  0  0  0  0  0  0  0
   18.0540  -19.1762  -11.2276 H   0  0  0  0  0  0  0  0  0  0  0  0
   16.4193  -17.9074   -8.5880 H   0  0  0  0  0  0  0  0  0  0  0  0
   17.0554  -18.1703  -10.5945 H   0  0  0  0  0  0  0  0  0  0  0  0
   16.9851  -19.7329   -8.0412 H   0  0  0  0  0  0  0  0  0  0  0  0
   18.3885  -21.8252   -9.8338 H   0  0  0  0  0  0  0  0  0  0  0  0
   16.3209  -20.2372   -8.3610 H   0  0  0  0  0  0  0  0  0  0  0  0
   16.4401  -20.9297   -7.1264 H   0  0  0  0  0  0  0  0  0  0  0  0
   16.2799  -23.9855   -5.7529 H   0  0  0  0  0  0  0  0  0  0  0  0
   15.9053  -21.9308   -6.1242 H   0  0  0  0  0  0  0  0  0  0  0  0
   17.3155  -24.2256   -7.4326 H   0  0  0  0  0  0  0  0  0  0  0  0
   17.3718  -24.1403   -7.6076 H   0  0  0  0  0  0  0  0  0  0  0  0
   17.7957  -21.1503  -10.9399 H   0  0  0  0  0  0  0  0  0  0  0  0
   17.1145  -20.9900   -9.0584 H   0  0  0  0  0  0  0  0  0  0  0  0
   18.2500  -21.6081  -11.9496 H   0  0  0  0  0  0  0  0  0  0  0  0
   18.6657  -21.7528  -12.8402 H   0  0  0  0  0  0  0  0  0  0  0  0
   18.9602  -24.6460  -12.1263 H   0  0  0  0  0  0  0  0  0  0  0  0
   18.9984  -24.5036  -12.1146 H   0  0  0  0  0  0  0  0  0  0  0  0
   17.7017  -25.0254   -7.9540 H   0  0  0  0  0  0  0  0  0  0  0  0
   18.4697  -25.9050   -9.5868 H   0  0  0  0  0  0  0  0  0  0  0  0
  1  2  1  0
  2  3  1  0
  2  4  1  0
  4  5  1  0
  5  6  1  0
  5  7  1  0
  7  8  1  0
  8  9  1  0
  9 10  1  0
 10 11  1  0
  9 12  1  0
 12 13  1  0
 13 14  1  0
 12 15  1  0
 15  7  1  0
  1 16  1  0
  1 17  1  0
  1 18  1  0
  2 19  1  0
  3 20  1  0
  3 21  1  0
  3 22  1  0
  4 23  1  0
  4 24  1  0
  5 25  1  0
  6 26  1  0
  6 27  1  0
  6 28  1  0
  7 29  1  0
  8 30  1  0
  8 31  1  0
  9 32  1  0
 10 33  1  0
 10 34  1  0
 12 35  1  0
 15 36  1  0
 15 37  1  0
M  END
