
     RDKit          2D

 22 21  0  0  0  0  0  0  0  0999 V2000
    6.5096   26.5357    8.0479 C   0  0  0  0  0  0  0  0  0  0  0  0
    5.7996   27.4013    7.0495 P   0  0  0  0  0  0  0  0  0  0  0  0
    6.2811   28.7982    6.7913 C   0  0  0  0  0  0  0  0  0  0  0  0
    4.6082   26.8699    6.3092 O   0  0  0  0  0  0  0  0  0  0  0  0
    3.8983   27.7354    5.3108 P   0  0  0  0  0  0  0  0  0  0  0  0
    2.7067   27.2040    4.5705 C   0  0  0  0  0  0  0  0  0  0  0  0
    1.5153   26.6726    3.8303 C   0  0  0  0  0  0  0  0  0  0  0  0
    0.3238   26.1412    3.0899 O   0  0  0  0  0  0  0  0  0  0  0  0
   -0.3861   27.0068    2.0915 O   0  0  0  0  0  0  0  0  0  0  0  0
   -1.5775   26.4755    1.3512 O   0  0  0  0  0  0  0  0  0  0  0  0
    7.2195   25.6702    9.0463 H   0  0  0  0  0  0  0  0  0  0  0  0
    5.6681   25.3657    7.6320 H   0  0  0  0  0  0  0  0  0  0  0  0
    7.3511   27.7057    8.4638 H   0  0  0  0  0  0  0  0  0  0  0  0
    6.7627   30.1952    6.5332 H   0  0  0  0  0  0  0  0  0  0  0  0
    5.1822   28.9917    5.7889 H   0  0  0  0  0  0  0  0  0  0  0  0
    7.3801   28.6046    7.7937 H   0  0  0  0  0  0  0  0  0  0  0  0
    4.3798   29.1323    5.0527 H   0  0  0  0  0  0  0  0  0  0  0  0
    2.8388   25.8976    5.2957 H   0  0  0  0  0  0  0  0  0  0  0  0
    2.5747   28.5103    3.8453 H   0  0  0  0  0  0  0  0  0  0  0  0
    1.3811   27.9802    3.1077 H   0  0  0  0  0  0  0  0  0  0  0  0
    1.6495   25.3650    4.5528 H   0  0  0  0  0  0  0  0  0  0  0  0
   -2.0592   25.0786    1.6093 H   0  0  0  0  0  0  0  0  0  0  0  0
  1  2  1  0
  2  3  1  0
  2  4  1  0
  4  5  1  0
  5  6  1  0
  6  7  1  0
  7  8  1  0
  8  9  1  0
  9 10  1  0
  1 11  1  0
  1 12  1  0
  1 13  1  0
  3 14  1  0
  3 15  1  0
  3 16  1  0
  5 17  1  0
  6 18  1  0
  6 19  1  0
  7 20  1  0
  7 21  1  0
 10 22  1  0
M  END
