
     RDKit          2D

 47 48  0  0  0  0  0  0  0  0999 V2000
   14.5698  -18.9284   -8.0354 C   0  0  0  0  0  0  0  0  0  0  0  0
   13.1085  -18.6962   -7.7895 C   0  0  0  0  0  0  0  0  0  0  0  0
   11.6471  -18.4640   -7.5436 C   0  0  0  0  0  0  0  0  0  0  0  0
   12.9699  -20.1021   -7.2854 O   0  0  0  0  0  0  0  0  0  0  0  0
   14.1795  -20.8512   -6.8103 C   0  0  0  0  0  0  0  0  0  0  0  0
   13.3211  -22.0421   -6.5024 C   0  0  0  0  0  0  0  0  0  0  0  0
   15.0380  -19.6602   -7.1181 C   0  0  0  0  0  0  0  0  0  0  0  0
   15.8963  -18.4692   -7.4259 C   0  0  0  0  0  0  0  0  0  0  0  0
   16.2475  -20.4092   -6.6428 O   0  0  0  0  0  0  0  0  0  0  0  0
   16.1089  -21.8151   -6.1385 C   0  0  0  0  0  0  0  0  0  0  0  0
   14.6915  -22.3039   -6.1836 N   0  0  0  0  0  0  0  0  0  0  0  0
   13.9983  -23.5825   -5.8164 C   0  0  0  0  0  0  0  0  0  0  0  0
   12.9893  -24.6655   -5.5732 C   0  0  0  0  0  0  0  0  0  0  0  0
   11.7434  -23.9691   -6.0347 O   0  0  0  0  0  0  0  0  0  0  0  0
   14.4353  -24.9017   -5.2519 C   0  0  0  0  0  0  0  0  0  0  0  0
   15.7466  -25.4889   -4.8208 S   0  0  0  0  0  4  0  0  0  0  0  0
   14.7376  -26.5719   -4.5776 C   0  0  0  0  0  0  0  0  0  0  0  0
   17.1640  -25.0000   -4.7757 O   0  0  0  0  0  0  0  0  0  0  0  0
   17.8572  -23.7215   -5.1429 N   0  0  0  0  0  0  0  0  0  0  0  0
   19.3340  -23.7746   -4.8852 C   0  0  0  0  0  0  0  0  0  0  0  0
   17.4201  -22.4023   -5.7074 O   0  0  0  0  0  0  0  0  0  0  0  0
   15.3197  -18.9193   -8.3056 H   0  0  0  0  0  0  0  0  0  0  0  0
   14.3636  -17.9049   -9.1123 H   0  0  0  0  0  0  0  0  0  0  0  0
   15.2811  -19.9228   -7.1663 H   0  0  0  0  0  0  0  0  0  0  0  0
   13.2471  -17.2903   -8.2937 H   0  0  0  0  0  0  0  0  0  0  0  0
   10.1858  -18.2317   -7.2978 H   0  0  0  0  0  0  0  0  0  0  0  0
   11.6189  -17.4609   -8.6587 H   0  0  0  0  0  0  0  0  0  0  0  0
   11.6754  -19.4669   -6.4287 H   0  0  0  0  0  0  0  0  0  0  0  0
   15.1455  -21.8662   -6.2747 H   0  0  0  0  0  0  0  0  0  0  0  0
   12.3216  -23.1329   -6.2549 H   0  0  0  0  0  0  0  0  0  0  0  0
   14.2868  -23.0568   -5.9660 H   0  0  0  0  0  0  0  0  0  0  0  0
   12.1116  -21.2934   -6.9785 H   0  0  0  0  0  0  0  0  0  0  0  0
   14.3730  -18.4397   -7.6823 H   0  0  0  0  0  0  0  0  0  0  0  0
   16.7547  -17.2783   -7.7338 H   0  0  0  0  0  0  0  0  0  0  0  0
   14.8002  -17.5803   -7.9340 H   0  0  0  0  0  0  0  0  0  0  0  0
   17.1061  -19.2188   -6.9518 H   0  0  0  0  0  0  0  0  0  0  0  0
   12.6931  -22.9843   -6.2506 H   0  0  0  0  0  0  0  0  0  0  0  0
   12.4131  -25.9903   -5.1698 H   0  0  0  0  0  0  0  0  0  0  0  0
   10.4235  -24.6797   -5.9811 H   0  0  0  0  0  0  0  0  0  0  0  0
   13.7535  -26.1853   -4.8809 H   0  0  0  0  0  0  0  0  0  0  0  0
   16.5356  -26.6366   -4.2639 H   0  0  0  0  0  0  0  0  0  0  0  0
   13.7287  -27.6549   -4.3345 H   0  0  0  0  0  0  0  0  0  0  0  0
   15.8263  -27.4735   -4.0758 H   0  0  0  0  0  0  0  0  0  0  0  0
   13.5341  -25.8089   -5.0461 H   0  0  0  0  0  0  0  0  0  0  0  0
   20.8107  -23.8279   -4.6275 H   0  0  0  0  0  0  0  0  0  0  0  0
   19.4725  -22.3687   -5.3893 H   0  0  0  0  0  0  0  0  0  0  0  0
   19.1953  -25.1806   -4.3812 H   0  0  0  0  0  0  0  0  0  0  0  0
  1  2  1  0
  2  3  1  0
  2  4  1  0
  4  5  1  0
  5  6  1  0
  5  7  1  0
  7  8  1  0
  7  9  1  0
  9 10  1  0
 10 11  2  0
 11 12  1  0
 12 13  1  0
 13 14  1  0
 13 15  1  0
 15 16  1  0
 16 17  1  0
 16 18  1  0
 18 19  1  0
 19 20  1  0
 19 21  1  0
 21 10  1  0
 15 12  1  0
  1 22  1  0
  1 23  1  0
  1 24  1  0
  2 25  1  0
  3 26  1  0
  3 27  1  0
  3 28  1  0
  5 29  1  0
  6 30  1  0
  6 31  1  0
  6 32  1  0
  7 33  1  0
  8 34  1  0
  8 35  1  0
  8 36  1  0
 12 37  1  0
 13 38  1  0
 14 39  1  0
 15 40  1  0
 16 41  1  0
 17 42  1  0
 17 43  1  0
 17 44  1  0
 20 45  1  0
 20 46  1  0
 20 47  1  0
M  END
