
     RDKit          2D

 24 23  0  0  0  0  0  0  0  0999 V2000
   -0.9859   25.0130    3.6965 C   0  0  0  0  0  0  0  0  0  0  0  0
   -2.4638   24.8595    3.9014 C   0  0  0  0  0  0  0  0  0  0  0  0
   -2.4504   26.0120    4.8615 O   0  0  0  0  0  0  0  0  0  0  0  0
   -1.1637   26.7211    5.1640 O   0  0  0  0  0  0  0  0  0  0  0  0
   -3.9418   24.7061    4.1063 C   0  0  0  0  0  0  0  0  0  0  0  0
   -5.4198   24.5526    4.3112 C   0  0  0  0  0  0  0  0  0  0  0  0
   -6.8978   24.3992    4.5161 O   0  0  0  0  0  0  0  0  0  0  0  0
   -3.9254   23.4510    3.2850 C   0  0  0  0  0  0  0  0  0  0  0  0
   -3.9089   22.1959    2.4637 C   0  0  0  0  0  0  0  0  0  0  0  0
   -3.8925   20.9409    1.6424 O   0  0  0  0  0  0  0  0  0  0  0  0
    0.4921   25.1664    3.4916 H   0  0  0  0  0  0  0  0  0  0  0  0
   -0.9402   23.6736    3.0227 H   0  0  0  0  0  0  0  0  0  0  0  0
   -0.6725   26.3497    4.3007 H   0  0  0  0  0  0  0  0  0  0  0  0
   -2.3653   24.1952    3.3240 H   0  0  0  0  0  0  0  0  0  0  0  0
   -1.1503   27.8735    6.1241 H   0  0  0  0  0  0  0  0  0  0  0  0
   -3.9583   25.9612    4.9276 H   0  0  0  0  0  0  0  0  0  0  0  0
   -5.4299   25.7871    5.1633 H   0  0  0  0  0  0  0  0  0  0  0  0
   -5.5204   23.8181    3.8265 H   0  0  0  0  0  0  0  0  0  0  0  0
   -7.5634   25.0491    5.6927 H   0  0  0  0  0  0  0  0  0  0  0  0
   -4.7860   23.2579    3.3657 H   0  0  0  0  0  0  0  0  0  0  0  0
   -3.0624   23.4634    3.0861 H   0  0  0  0  0  0  0  0  0  0  0  0
   -5.3566   22.3975    2.1267 H   0  0  0  0  0  0  0  0  0  0  0  0
   -2.4613   21.9944    2.8007 H   0  0  0  0  0  0  0  0  0  0  0  0
   -2.6453   20.1110    1.5658 H   0  0  0  0  0  0  0  0  0  0  0  0
  1  2  1  0
  2  3  1  0
  3  4  1  0
  2  5  1  0
  5  6  1  0
  6  7  1  0
  5  8  1  0
  8  9  1  0
  9 10  1  0
  1 11  1  0
  1 12  1  0
  1 13  1  0
  2 14  1  0
  4 15  1  0
  5 16  1  0
  6 17  1  0
  6 18  1  0
  7 19  1  0
  8 20  1  0
  8 21  1  0
  9 22  1  0
  9 23  1  0
 10 24  1  0
M  END
