
     RDKit          2D

 30 32  0  0  0  0  0  0  0  0999 V2000
    1.1093   21.8179    4.5167 C   0  0  0  0  0  0  0  0  0  0  0  0
   -0.3569   22.1077    4.6435 C   0  0  0  0  0  0  0  0  0  0  0  0
   -0.3257   21.0079    5.6631 C   0  0  0  0  0  0  0  0  0  0  0  0
   -1.7150   20.8352    6.2015 C   0  0  0  0  0  0  0  0  0  0  0  0
   -2.6050   21.8282    5.5146 C   0  0  0  0  0  0  0  0  0  0  0  0
   -3.7192   22.6947    5.0069 N   0  0  0  0  0  0  0  0  0  0  0  0
   -1.7657   22.6146    4.5518 C   0  0  0  0  0  0  0  0  0  0  0  0
   -1.1960   23.5478    3.5249 C   0  0  0  0  0  0  0  0  0  0  0  0
   -2.4331   24.3086    3.1493 C   0  0  0  0  0  0  0  0  0  0  0  0
   -2.3617   25.3934    2.1159 C   0  0  0  0  0  0  0  0  0  0  0  0
   -1.1247   24.6327    2.4914 C   0  0  0  0  0  0  0  0  0  0  0  0
    0.1838   24.9568    1.8335 N   0  0  0  0  0  0  0  0  0  0  0  0
    2.5756   21.5282    4.3898 H   0  0  0  0  0  0  0  0  0  0  0  0
    1.2080   21.4975    5.2399 H   0  0  0  0  0  0  0  0  0  0  0  0
    1.1023   22.3898    3.1300 H   0  0  0  0  0  0  0  0  0  0  0  0
    0.0924   23.0903    3.6031 H   0  0  0  0  0  0  0  0  0  0  0  0
    0.0108   19.8957    6.6116 H   0  0  0  0  0  0  0  0  0  0  0  0
    0.4563   20.9043    5.5479 H   0  0  0  0  0  0  0  0  0  0  0  0
   -2.9733   20.4375    6.9146 H   0  0  0  0  0  0  0  0  0  0  0  0
   -1.0881   19.7590    7.0374 H   0  0  0  0  0  0  0  0  0  0  0  0
   -3.6773   21.2229    6.3713 H   0  0  0  0  0  0  0  0  0  0  0  0
   -5.1085   22.5220    5.5452 H   0  0  0  0  0  0  0  0  0  0  0  0
   -3.8019   23.8000    3.9961 H   0  0  0  0  0  0  0  0  0  0  0  0
   -2.9594   23.4169    4.1256 H   0  0  0  0  0  0  0  0  0  0  0  0
    0.2679   23.2395    3.4160 H   0  0  0  0  0  0  0  0  0  0  0  0
   -3.8138   24.1167    3.7032 H   0  0  0  0  0  0  0  0  0  0  0  0
   -3.7967   25.8300    2.0970 H   0  0  0  0  0  0  0  0  0  0  0  0
   -1.7920   26.3266    1.0890 H   0  0  0  0  0  0  0  0  0  0  0  0
    0.3245   26.2097    1.0206 H   0  0  0  0  0  0  0  0  0  0  0  0
    1.3516   24.0283    1.9883 H   0  0  0  0  0  0  0  0  0  0  0  0
  1  2  1  0
  2  3  1  0
  3  4  1  0
  4  5  1  0
  5  6  1  0
  5  7  1  0
  7  8  1  0
  8  9  1  0
  9 10  1  0
 10 11  1  0
 11 12  1  0
  7  2  1  0
 11  8  1  0
 11  9  1  0
  1 13  1  0
  1 14  1  0
  1 15  1  0
  2 16  1  0
  3 17  1  0
  3 18  1  0
  4 19  1  0
  4 20  1  0
  5 21  1  0
  6 22  1  0
  6 23  1  0
  7 24  1  0
  8 25  1  0
  9 26  1  0
 10 27  1  0
 10 28  1  0
 12 29  1  0
 12 30  1  0
M  END
