
     RDKit          2D

 42 44  0  0  0  0  0  0  0  0999 V2000
    7.6304   23.4144    7.6508 C   0  0  0  0  0  0  0  0  0  0  0  0
    6.2377   23.5479    7.1099 C   0  0  0  0  0  0  0  0  0  0  0  0
    4.8450   23.6814    6.5689 C   0  0  0  0  0  0  0  0  0  0  0  0
    3.4523   23.8148    6.0279 C   0  0  0  0  0  0  0  0  0  0  0  0
    3.1094   24.7576    7.1432 C   0  0  0  0  0  0  0  0  0  0  0  0
    1.7168   24.8910    6.6022 N   0  0  0  0  0  0  0  0  0  0  0  0
    0.7234   25.7738    7.2979 C   0  0  0  0  0  0  0  0  0  0  0  0
   -0.4680   25.5769    6.4079 C   0  0  0  0  0  0  0  0  0  0  0  0
   -1.7553   26.2848    6.7106 C   0  0  0  0  0  0  0  0  0  0  0  0
   -2.6017   25.7814    5.5792 C   0  0  0  0  0  0  0  0  0  0  0  0
   -3.4481   25.2780    4.4477 C   0  0  0  0  0  0  0  0  0  0  0  0
   -3.7596   26.5893    6.0858 C   0  0  0  0  0  0  0  0  0  0  0  0
   -4.9174   27.3971    6.5924 C   0  0  0  0  0  0  0  0  0  0  0  0
   -6.0752   28.2051    7.0991 C   0  0  0  0  0  0  0  0  0  0  0  0
   -7.0345   27.6051    8.0838 N   0  0  0  0  0  0  0  0  0  0  0  0
   -0.5640   26.4816    7.6005 C   0  0  0  0  0  0  0  0  0  0  0  0
    4.5022   24.6241    7.6842 N   0  0  0  0  0  0  0  0  0  0  0  0
    9.0230   23.2810    8.1918 H   0  0  0  0  0  0  0  0  0  0  0  0
    7.9743   22.4747    6.5335 H   0  0  0  0  0  0  0  0  0  0  0  0
    7.2864   24.3543    8.7682 H   0  0  0  0  0  0  0  0  0  0  0  0
    5.8944   24.4894    8.2259 H   0  0  0  0  0  0  0  0  0  0  0  0
    6.5810   22.6064    5.9937 H   0  0  0  0  0  0  0  0  0  0  0  0
    5.1878   22.7387    5.4536 H   0  0  0  0  0  0  0  0  0  0  0  0
    3.7952   22.8721    4.9127 H   0  0  0  0  0  0  0  0  0  0  0  0
    2.1118   23.8324    5.3551 H   0  0  0  0  0  0  0  0  0  0  0  0
    2.7666   25.7002    8.2584 H   0  0  0  0  0  0  0  0  0  0  0  0
    1.1525   24.2188    5.3857 H   0  0  0  0  0  0  0  0  0  0  0  0
    1.5697   26.2772    8.4293 H   0  0  0  0  0  0  0  0  0  0  0  0
   -0.3720   24.6722    5.2154 H   0  0  0  0  0  0  0  0  0  0  0  0
   -2.3822   26.9551    7.3051 H   0  0  0  0  0  0  0  0  0  0  0  0
   -1.4439   24.9735    5.0725 H   0  0  0  0  0  0  0  0  0  0  0  0
   -4.2944   24.7745    3.3162 H   0  0  0  0  0  0  0  0  0  0  0  0
   -4.1634   25.7709    4.6204 H   0  0  0  0  0  0  0  0  0  0  0  0
   -2.3314   24.3752    4.0141 H   0  0  0  0  0  0  0  0  0  0  0  0
   -4.3352   26.3620    5.4521 H   0  0  0  0  0  0  0  0  0  0  0  0
   -3.2546   27.0134    6.9580 H   0  0  0  0  0  0  0  0  0  0  0  0
   -5.7634   26.8946    5.4604 H   0  0  0  0  0  0  0  0  0  0  0  0
   -4.0714   27.8997    7.7245 H   0  0  0  0  0  0  0  0  0  0  0  0
   -6.2738   29.6129    6.6211 H   0  0  0  0  0  0  0  0  0  0  0  0
   -8.1924   28.4130    8.5906 H   0  0  0  0  0  0  0  0  0  0  0  0
   -0.6599   27.3865    8.7931 H   0  0  0  0  0  0  0  0  0  0  0  0
    5.2445   25.1963    8.8553 H   0  0  0  0  0  0  0  0  0  0  0  0
  1  2  1  0
  2  3  1  0
  3  4  1  0
  4  5  1  0
  5  6  1  0
  6  7  1  0
  7  8  1  0
  8  9  1  0
  9 10  1  0
 10 11  1  0
 10 12  1  0
 12 13  1  0
 13 14  1  0
 14 15  2  3
  9 16  1  0
  5 17  1  0
 17  3  1  0
 16  7  1  0
 16  8  1  0
  1 18  1  0
  1 19  1  0
  1 20  1  0
  2 21  1  0
  2 22  1  0
  3 23  1  0
  4 24  1  0
  4 25  1  0
  5 26  1  0
  6 27  1  0
  7 28  1  0
  8 29  1  0
  9 30  1  0
 10 31  1  0
 11 32  1  0
 11 33  1  0
 11 34  1  0
 12 35  1  0
 12 36  1  0
 13 37  1  0
 13 38  1  0
 14 39  1  0
 15 40  1  0
 16 41  1  0
 17 42  1  0
M  END
