
     RDKit          2D

 60 66  0  0  0  0  0  0  0  0999 V2000
    0.2724   29.4526    1.9914 C   0  0  0  0  0  0  0  0  0  0  0  0
   -0.8708   29.6491    2.9426 C   0  0  0  0  0  0  0  0  0  0  0  0
   -0.6435   28.1674    2.9954 C   0  0  0  0  0  0  0  0  0  0  0  0
   -0.2454   26.7209    2.8953 C   0  0  0  0  0  0  0  0  0  0  0  0
   -0.9124   25.6128    3.6553 C   0  0  0  0  0  0  0  0  0  0  0  0
   -2.0503   25.9191    4.5834 C   0  0  0  0  0  0  0  0  0  0  0  0
   -2.5212   27.3333    4.7517 C   0  0  0  0  0  0  0  0  0  0  0  0
   -1.3780   27.1368    3.8005 C   0  0  0  0  0  0  0  0  0  0  0  0
   -0.9072   25.7225    3.6324 C   0  0  0  0  0  0  0  0  0  0  0  0
   -0.4363   24.3083    3.4642 C   0  0  0  0  0  0  0  0  0  0  0  0
    0.0346   22.8941    3.2959 C   0  0  0  0  0  0  0  0  0  0  0  0
    0.5055   21.4800    3.1277 C   0  0  0  0  0  0  0  0  0  0  0  0
    0.9764   20.0658    2.9595 C   0  0  0  0  0  0  0  0  0  0  0  0
    1.4473   18.6516    2.7913 C   0  0  0  0  0  0  0  0  0  0  0  0
    1.9182   17.2374    2.6231 C   0  0  0  0  0  0  0  0  0  0  0  0
    1.2512   16.1293    3.3830 C   0  0  0  0  0  0  0  0  0  0  0  0
    1.7221   14.7152    3.2148 C   0  0  0  0  0  0  0  0  0  0  0  0
    2.8600   14.4089    2.2866 C   0  0  0  0  0  0  0  0  0  0  0  0
    3.5269   15.5169    1.5267 C   0  0  0  0  0  0  0  0  0  0  0  0
    3.0561   16.9311    1.6949 C   0  0  0  0  0  0  0  0  0  0  0  0
   -3.2121   28.6090    5.1325 C   0  0  0  0  0  0  0  0  0  0  0  0
   -4.3204   29.1289    5.9994 C   0  0  0  0  0  0  0  0  0  0  0  0
   -5.4287   29.6487    6.8663 C   0  0  0  0  0  0  0  0  0  0  0  0
   -4.0389   30.5232    5.5233 C   0  0  0  0  0  0  0  0  0  0  0  0
   -4.3492   31.9905    5.5443 C   0  0  0  0  0  0  0  0  0  0  0  0
   -3.2409   31.4707    4.6775 C   0  0  0  0  0  0  0  0  0  0  0  0
   -1.8886   30.4662    3.6817 C   0  0  0  0  0  0  0  0  0  0  0  0
   -2.9306   30.0033    4.6564 C   0  0  0  0  0  0  0  0  0  0  0  0
    1.4156   29.2561    1.0403 H   0  0  0  0  0  0  0  0  0  0  0  0
    0.4627   30.9385    1.9131 H   0  0  0  0  0  0  0  0  0  0  0  0
    0.0821   27.9667    2.0698 H   0  0  0  0  0  0  0  0  0  0  0  0
   -0.5892   31.0435    2.4664 H   0  0  0  0  0  0  0  0  0  0  0  0
    0.8924   26.4147    1.9672 H   0  0  0  0  0  0  0  0  0  0  0  0
   -0.7077   24.1286    3.7279 H   0  0  0  0  0  0  0  0  0  0  0  0
   -2.7173   24.8111    5.3434 H   0  0  0  0  0  0  0  0  0  0  0  0
   -1.8047   24.9311    4.5369 H   0  0  0  0  0  0  0  0  0  0  0  0
    0.2183   25.8296    2.6464 H   0  0  0  0  0  0  0  0  0  0  0  0
    0.4821   24.7453    2.3616 H   0  0  0  0  0  0  0  0  0  0  0  0
   -1.3546   23.8714    4.5667 H   0  0  0  0  0  0  0  0  0  0  0  0
   -0.8818   22.4576    4.4002 H   0  0  0  0  0  0  0  0  0  0  0  0
    0.9511   23.3307    2.1916 H   0  0  0  0  0  0  0  0  0  0  0  0
    1.5613   21.9455    2.1694 H   0  0  0  0  0  0  0  0  0  0  0  0
   -0.5503   21.0144    4.0861 H   0  0  0  0  0  0  0  0  0  0  0  0
    0.4012   19.7148    4.2996 H   0  0  0  0  0  0  0  0  0  0  0  0
    1.5516   20.4167    1.6194 H   0  0  0  0  0  0  0  0  0  0  0  0
    0.4052   18.1887    3.7658 H   0  0  0  0  0  0  0  0  0  0  0  0
    2.4895   19.1144    1.8168 H   0  0  0  0  0  0  0  0  0  0  0  0
    0.1134   16.4356    4.3112 H   0  0  0  0  0  0  0  0  0  0  0  0
    1.0552   13.6072    3.9747 H   0  0  0  0  0  0  0  0  0  0  0  0
    3.3309   12.9947    2.1184 H   0  0  0  0  0  0  0  0  0  0  0  0
    4.6648   15.2106    0.5985 H   0  0  0  0  0  0  0  0  0  0  0  0
    3.7230   18.0391    0.9349 H   0  0  0  0  0  0  0  0  0  0  0  0
   -3.8439   27.4647    5.8683 H   0  0  0  0  0  0  0  0  0  0  0  0
   -4.6020   27.7346    6.4756 H   0  0  0  0  0  0  0  0  0  0  0  0
   -6.5370   30.1686    7.7332 H   0  0  0  0  0  0  0  0  0  0  0  0
   -5.7108   28.2543    7.3418 H   0  0  0  0  0  0  0  0  0  0  0  0
   -5.1465   31.0431    6.3908 H   0  0  0  0  0  0  0  0  0  0  0  0
   -5.4869   32.0021    6.5218 H   0  0  0  0  0  0  0  0  0  0  0  0
   -4.2644   33.4539    5.2259 H   0  0  0  0  0  0  0  0  0  0  0  0
   -1.8607   31.9412    3.4104 H   0  0  0  0  0  0  0  0  0  0  0  0
  1  2  1  0
  2  3  1  0
  3  4  2  0
  4  5  1  0
  5  6  2  0
  6  7  1  0
  7  8  2  0
  8  9  1  0
  9 10  1  0
 10 11  1  0
 11 12  1  0
 12 13  1  0
 13 14  1  0
 14 15  1  0
 15 16  2  0
 16 17  1  0
 17 18  2  0
 18 19  1  0
 19 20  2  0
  7 21  1  0
 21 22  1  0
 22 23  1  0
 22 24  1  0
 24 25  1  0
 25 26  1  0
 26 27  1  0
 27 28  1  0
 27  2  1  0
  8  3  1  0
 20 15  1  0
 28 21  1  0
 26 24  1  0
 28 24  1  0
 28 26  1  0
  1 29  1  0
  1 30  1  0
  1 31  1  0
  2 32  1  0
  4 33  1  0
  5 34  1  0
  6 35  1  0
  9 36  1  0
  9 37  1  0
 10 38  1  0
 10 39  1  0
 11 40  1  0
 11 41  1  0
 12 42  1  0
 12 43  1  0
 13 44  1  0
 13 45  1  0
 14 46  1  0
 14 47  1  0
 16 48  1  0
 17 49  1  0
 18 50  1  0
 19 51  1  0
 20 52  1  0
 21 53  1  0
 22 54  1  0
 23 55  1  0
 23 56  1  0
 23 57  1  0
 25 58  1  0
 25 59  1  0
 27 60  1  0
M  END
