
     RDKit          2D

 75 81  0  0  0  0  0  0  0  0999 V2000
   18.5813  -26.6898  -17.1216 C   0  0  0  0  0  0  0  0  0  0  0  0
   18.6400  -25.9866  -15.7979 C   0  0  0  0  0  0  0  0  0  0  0  0
   19.1264  -26.7171  -14.5815 C   0  0  0  0  0  0  0  0  0  0  0  0
   19.6129  -27.4476  -13.3651 C   0  0  0  0  0  0  0  0  0  0  0  0
   20.0993  -28.1781  -12.1486 C   0  0  0  0  0  0  0  0  0  0  0  0
   18.2122  -24.5529  -15.6908 C   0  0  0  0  0  0  0  0  0  0  0  0
   17.7844  -23.1192  -15.5835 C   0  0  0  0  0  0  0  0  0  0  0  0
   18.0201  -22.8858  -14.1206 C   0  0  0  0  0  0  0  0  0  0  0  0
   17.4901  -21.7773  -14.9811 C   0  0  0  0  0  0  0  0  0  0  0  0
   17.0036  -21.0468  -16.1975 C   0  0  0  0  0  0  0  0  0  0  0  0
   16.5172  -20.3163  -17.4140 C   0  0  0  0  0  0  0  0  0  0  0  0
   16.7729  -22.1354  -16.9620 F   0  0  0  0  0  0  0  0  0  0  0  0
   17.2022  -19.7385  -15.4912 C   0  0  0  0  0  0  0  0  0  0  0  0
   17.2119  -19.0271  -16.8117 C   0  0  0  0  0  0  0  0  0  0  0  0
   17.4104  -17.7188  -16.1054 C   0  0  0  0  0  0  0  0  0  0  0  0
   17.5577  -16.2905  -16.5397 C   0  0  0  0  0  0  0  0  0  0  0  0
   17.4007  -18.4302  -14.7849 C   0  0  0  0  0  0  0  0  0  0  0  0
   17.3910  -19.1416  -13.4644 C   0  0  0  0  0  0  0  0  0  0  0  0
   16.8236  -17.9993  -12.6750 C   0  0  0  0  0  0  0  0  0  0  0  0
   16.6957  -18.4408  -11.2472 C   0  0  0  0  0  0  0  0  0  0  0  0
   16.1431  -17.4431  -10.2728 C   0  0  0  0  0  0  0  0  0  0  0  0
   15.8500  -17.4476   -8.8018 C   0  0  0  0  0  0  0  0  0  0  0  0
   15.9880  -18.4514   -7.6957 C   0  0  0  0  0  0  0  0  0  0  0  0
   16.4763  -19.8666   -7.6026 C   0  0  0  0  0  0  0  0  0  0  0  0
   17.0288  -20.8642   -8.5770 C   0  0  0  0  0  0  0  0  0  0  0  0
   17.5983  -22.0876   -9.2320 C   0  0  0  0  0  0  0  0  0  0  0  0
   17.8915  -22.0833  -10.7030 C   0  0  0  0  0  0  0  0  0  0  0  0
   17.3220  -20.8599  -10.0481 C   0  0  0  0  0  0  0  0  0  0  0  0
   17.1840  -19.8560  -11.1541 C   0  0  0  0  0  0  0  0  0  0  0  0
   17.7272  -21.2311  -11.4070 C   0  0  0  0  0  0  0  0  0  0  0  0
   17.6137  -20.2892  -12.5245 C   0  0  0  0  0  0  0  0  0  0  0  0
   17.9563  -20.4327  -13.9777 O   0  0  0  0  0  0  0  0  0  0  0  0
   19.0091  -28.1235  -17.2289 H   0  0  0  0  0  0  0  0  0  0  0  0
   18.0949  -25.9592  -18.3381 H   0  0  0  0  0  0  0  0  0  0  0  0
   18.8781  -28.0270  -15.2688 H   0  0  0  0  0  0  0  0  0  0  0  0
   19.3748  -25.4072  -13.8941 H   0  0  0  0  0  0  0  0  0  0  0  0
   19.8976  -28.6572  -14.2053 H   0  0  0  0  0  0  0  0  0  0  0  0
   19.3282  -26.2381  -12.5248 H   0  0  0  0  0  0  0  0  0  0  0  0
   20.5857  -28.9087  -10.9322 H   0  0  0  0  0  0  0  0  0  0  0  0
   19.5652  -27.0811  -11.2762 H   0  0  0  0  0  0  0  0  0  0  0  0
   20.6334  -29.2752  -13.0211 H   0  0  0  0  0  0  0  0  0  0  0  0
   18.5408  -24.7241  -14.3926 H   0  0  0  0  0  0  0  0  0  0  0  0
   17.8969  -24.5373  -17.1572 H   0  0  0  0  0  0  0  0  0  0  0  0
   17.4814  -23.0374  -16.8965 H   0  0  0  0  0  0  0  0  0  0  0  0
   18.0787  -22.1825  -12.7970 H   0  0  0  0  0  0  0  0  0  0  0  0
   18.4917  -24.0418  -13.6074 H   0  0  0  0  0  0  0  0  0  0  0  0
   17.5262  -21.4153  -14.2718 H   0  0  0  0  0  0  0  0  0  0  0  0
   16.0308  -19.5858  -18.6304 H   0  0  0  0  0  0  0  0  0  0  0  0
   17.0461  -21.4163  -18.2861 H   0  0  0  0  0  0  0  0  0  0  0  0
   15.8864  -19.0723  -16.8623 H   0  0  0  0  0  0  0  0  0  0  0  0
   17.1683  -20.6041  -14.2667 H   0  0  0  0  0  0  0  0  0  0  0  0
   17.2216  -18.3157  -18.1322 H   0  0  0  0  0  0  0  0  0  0  0  0
   17.0216  -20.1244  -17.8166 H   0  0  0  0  0  0  0  0  0  0  0  0
   17.7469  -15.2109  -15.5157 H   0  0  0  0  0  0  0  0  0  0  0  0
   17.5157  -15.9420  -17.9980 H   0  0  0  0  0  0  0  0  0  0  0  0
   17.2057  -19.8718  -15.1508 H   0  0  0  0  0  0  0  0  0  0  0  0
   16.8333  -17.2878  -13.9955 H   0  0  0  0  0  0  0  0  0  0  0  0
   16.2918  -16.6062  -12.5113 H   0  0  0  0  0  0  0  0  0  0  0  0
   16.2893  -17.0636  -11.6811 H   0  0  0  0  0  0  0  0  0  0  0  0
   15.6188  -16.0423  -10.1603 H   0  0  0  0  0  0  0  0  0  0  0  0
   16.0148  -16.4568  -11.3956 H   0  0  0  0  0  0  0  0  0  0  0  0
   15.3220  -16.5993   -7.6829 H   0  0  0  0  0  0  0  0  0  0  0  0
   15.4072  -16.0454   -9.0986 H   0  0  0  0  0  0  0  0  0  0  0  0
   15.7656  -18.6527   -6.2260 H   0  0  0  0  0  0  0  0  0  0  0  0
   15.4216  -17.3237   -6.8847 H   0  0  0  0  0  0  0  0  0  0  0  0
   16.7526  -21.0945   -6.7865 H   0  0  0  0  0  0  0  0  0  0  0  0
   16.1181  -19.6740   -6.1589 H   0  0  0  0  0  0  0  0  0  0  0  0
   17.0936  -21.7293   -7.3533 H   0  0  0  0  0  0  0  0  0  0  0  0
   17.8746  -23.3155   -8.4158 H   0  0  0  0  0  0  0  0  0  0  0  0
   18.4233  -23.4763  -10.8668 H   0  0  0  0  0  0  0  0  0  0  0  0
   17.9999  -21.5951  -12.1173 H   0  0  0  0  0  0  0  0  0  0  0  0
   18.2705  -22.6062  -11.6599 H   0  0  0  0  0  0  0  0  0  0  0  0
   17.8250  -21.3135  -12.9016 H   0  0  0  0  0  0  0  0  0  0  0  0
   17.8924  -21.8141  -10.0349 H   0  0  0  0  0  0  0  0  0  0  0  0
   18.0304  -21.6744  -12.1276 H   0  0  0  0  0  0  0  0  0  0  0  0
  1  2  2  3
  2  3  1  0
  3  4  1  0
  4  5  1  0
  2  6  1  0
  6  7  1  0
  7  8  1  0
  8  9  1  0
  9 10  1  0
 10 11  1  0
 10 12  1  0
 10 13  1  0
 13 14  1  0
 14 15  1  0
 15 16  2  3
 15 17  1  0
 17 18  1  0
 18 19  1  0
 19 20  1  0
 20 21  1  0
 21 22  1  0
 22 23  1  0
 23 24  1  0
 24 25  1  0
 25 26  1  0
 26 27  1  0
 27 28  1  0
 28 29  1  0
 29 30  1  0
 29 31  1  0
 31 32  1  0
  9  7  1  0
 17 13  1  0
 31 18  1  0
 32 18  1  0
 29 20  1  0
 28 25  1  0
 28 26  1  0
  1 33  1  0
  1 34  1  0
  3 35  1  0
  3 36  1  0
  4 37  1  0
  4 38  1  0
  5 39  1  0
  5 40  1  0
  5 41  1  0
  6 42  1  0
  6 43  1  0
  7 44  1  0
  8 45  1  0
  8 46  1  0
  9 47  1  0
 11 48  1  0
 11 49  1  0
 11 50  1  0
 13 51  1  0
 14 52  1  0
 14 53  1  0
 16 54  1  0
 16 55  1  0
 17 56  1  0
 19 57  1  0
 19 58  1  0
 20 59  1  0
 21 60  1  0
 21 61  1  0
 22 62  1  0
 22 63  1  0
 23 64  1  0
 23 65  1  0
 24 66  1  0
 24 67  1  0
 25 68  1  0
 26 69  1  0
 27 70  1  0
 27 71  1  0
 30 72  1  0
 30 73  1  0
 30 74  1  0
 31 75  1  0
M  END
