
     RDKit          2D

 57 64  0  0  0  0  0  0  0  0999 V2000
    3.9269   33.2009    2.4011 C   0  0  0  0  0  0  0  0  0  0  0  0
    4.2748   31.8384    2.9233 C   0  0  0  0  0  0  0  0  0  0  0  0
    4.7011   31.7814    4.3602 C   0  0  0  0  0  0  0  0  0  0  0  0
    5.0067   32.3743    5.7038 C   0  0  0  0  0  0  0  0  0  0  0  0
    5.1083   30.5850    5.1683 C   0  0  0  0  0  0  0  0  0  0  0  0
    5.5708   29.8894    6.4141 C   0  0  0  0  0  0  0  0  0  0  0  0
    5.2661   28.4350    6.6182 O   0  0  0  0  0  0  0  0  0  0  0  0
    6.0334   29.1938    7.6600 C   0  0  0  0  0  0  0  0  0  0  0  0
    6.3985   28.3155    8.8198 C   0  0  0  0  0  0  0  0  0  0  0  0
    6.6550   27.2665    9.8662 C   0  0  0  0  0  0  0  0  0  0  0  0
    7.4026   27.5195   11.1418 C   0  0  0  0  0  0  0  0  0  0  0  0
    7.9456   28.8867   11.4344 C   0  0  0  0  0  0  0  0  0  0  0  0
    7.7412   30.0011   10.4513 C   0  0  0  0  0  0  0  0  0  0  0  0
    7.7077   31.2957    9.6945 C   0  0  0  0  0  0  0  0  0  0  0  0
    7.0833   31.5837    8.3613 C   0  0  0  0  0  0  0  0  0  0  0  0
    6.3381   30.6483    7.4560 C   0  0  0  0  0  0  0  0  0  0  0  0
    7.1585   28.6748   10.0621 C   0  0  0  0  0  0  0  0  0  0  0  0
    5.1897   29.1501    4.7388 C   0  0  0  0  0  0  0  0  0  0  0  0
    4.8840   28.5573    3.3952 C   0  0  0  0  0  0  0  0  0  0  0  0
    4.4215   29.2529    2.1493 C   0  0  0  0  0  0  0  0  0  0  0  0
    4.1503   30.7131    1.9393 C   0  0  0  0  0  0  0  0  0  0  0  0
    3.7432   31.9095    1.1314 C   0  0  0  0  0  0  0  0  0  0  0  0
    3.3360   33.1059    0.3234 C   0  0  0  0  0  0  0  0  0  0  0  0
    3.7282   33.2705    1.7619 C   0  0  0  0  0  0  0  0  0  0  0  0
    3.3510   31.7450   -0.3071 C   0  0  0  0  0  0  0  0  0  0  0  0
    3.4654   33.7210    1.0720 H   0  0  0  0  0  0  0  0  0  0  0  0
    4.0723   34.2790    3.4339 H   0  0  0  0  0  0  0  0  0  0  0  0
    4.4299   33.2417    4.1502 H   0  0  0  0  0  0  0  0  0  0  0  0
    5.2677   33.1288    6.9737 H   0  0  0  0  0  0  0  0  0  0  0  0
    4.6589   33.7368    5.1817 H   0  0  0  0  0  0  0  0  0  0  0  0
    5.3893   31.0942    6.3858 H   0  0  0  0  0  0  0  0  0  0  0  0
    5.2327   31.7103    6.1522 H   0  0  0  0  0  0  0  0  0  0  0  0
    5.8707   26.9351    8.5632 H   0  0  0  0  0  0  0  0  0  0  0  0
    6.5923   25.8995   10.4803 H   0  0  0  0  0  0  0  0  0  0  0  0
    5.9002   26.3907    8.9107 H   0  0  0  0  0  0  0  0  0  0  0  0
    8.0382   27.2671   12.4769 H   0  0  0  0  0  0  0  0  0  0  0  0
    7.0802   26.0645   11.3129 H   0  0  0  0  0  0  0  0  0  0  0  0
    8.6791   29.8792   12.2872 H   0  0  0  0  0  0  0  0  0  0  0  0
    8.3926   28.1595   12.6678 H   0  0  0  0  0  0  0  0  0  0  0  0
    8.4831   30.2147   11.7375 H   0  0  0  0  0  0  0  0  0  0  0  0
    8.4678   31.6550   10.9367 H   0  0  0  0  0  0  0  0  0  0  0  0
    8.0967   32.7438    9.6529 H   0  0  0  0  0  0  0  0  0  0  0  0
    7.5997   32.9730    8.5918 H   0  0  0  0  0  0  0  0  0  0  0  0
    6.8039   32.5969    7.2911 H   0  0  0  0  0  0  0  0  0  0  0  0
    6.2835   31.9242    6.6692 H   0  0  0  0  0  0  0  0  0  0  0  0
    7.0347   27.2724   10.5798 H   0  0  0  0  0  0  0  0  0  0  0  0
    7.6543   28.0503   11.3327 H   0  0  0  0  0  0  0  0  0  0  0  0
    5.5046   27.7342    5.1211 H   0  0  0  0  0  0  0  0  0  0  0  0
    5.6471   28.7355    6.1059 H   0  0  0  0  0  0  0  0  0  0  0  0
    4.8149   27.3220    2.5470 H   0  0  0  0  0  0  0  0  0  0  0  0
    5.2613   27.2624    4.0517 H   0  0  0  0  0  0  0  0  0  0  0  0
    4.0204   29.1285    0.7094 H   0  0  0  0  0  0  0  0  0  0  0  0
    4.4467   27.8757    1.5554 H   0  0  0  0  0  0  0  0  0  0  0  0
    3.8046   30.2907    0.5422 H   0  0  0  0  0  0  0  0  0  0  0  0
    2.9289   34.3023   -0.4846 H   0  0  0  0  0  0  0  0  0  0  0  0
    3.8947   34.2906    2.8489 H   0  0  0  0  0  0  0  0  0  0  0  0
    3.1332   30.8641   -1.5016 H   0  0  0  0  0  0  0  0  0  0  0  0
  1  2  2  3
  2  3  1  0
  3  4  1  0
  3  5  1  0
  5  6  1  0
  6  7  1  0
  7  8  1  0
  8  9  1  0
  9 10  1  0
 10 11  1  0
 11 12  1  0
 12 13  1  0
 13 14  1  0
 14 15  1  0
 15 16  1  0
 13 17  1  0
  5 18  1  0
 18 19  1  0
 19 20  1  0
 20 21  1  0
 21 22  1  0
 22 23  1  0
 23 24  1  0
 24 25  1  0
 21  2  1  0
 24 22  1  0
  8  6  1  0
 17  9  1  0
 25 22  1  0
 16  6  1  0
 25 23  1  0
 16  8  1  0
  1 26  1  0
  1 27  1  0
  3 28  1  0
  4 29  1  0
  4 30  1  0
  4 31  1  0
  5 32  1  0
  9 33  1  0
 10 34  1  0
 10 35  1  0
 11 36  1  0
 11 37  1  0
 12 38  1  0
 12 39  1  0
 13 40  1  0
 14 41  1  0
 14 42  1  0
 15 43  1  0
 15 44  1  0
 16 45  1  0
 17 46  1  0
 17 47  1  0
 18 48  1  0
 18 49  1  0
 19 50  1  0
 19 51  1  0
 20 52  1  0
 20 53  1  0
 21 54  1  0
 23 55  1  0
 24 56  1  0
 25 57  1  0
M  END
