
     RDKit          2D

 46 48  0  0  0  0  0  0  0  0999 V2000
   15.1620  -25.5096   -4.6530 C   0  0  0  0  0  0  0  0  0  0  0  0
   16.0515  -24.7664   -5.6053 C   0  0  0  0  0  0  0  0  0  0  0  0
   15.4503  -23.9275   -6.6937 C   0  0  0  0  0  0  0  0  0  0  0  0
   14.8490  -23.0886   -7.7821 C   0  0  0  0  0  0  0  0  0  0  0  0
   14.2476  -22.2497   -8.8705 C   0  0  0  0  0  0  0  0  0  0  0  0
   13.2126  -21.5892   -9.7321 C   0  0  0  0  0  0  0  0  0  0  0  0
   12.7899  -22.4720   -8.5956 C   0  0  0  0  0  0  0  0  0  0  0  0
   17.5422  -24.8623   -5.4690 C   0  0  0  0  0  0  0  0  0  0  0  0
   19.0330  -24.9581   -5.3328 C   0  0  0  0  0  0  0  0  0  0  0  0
   17.7086  -23.9488   -6.6471 C   0  0  0  0  0  0  0  0  0  0  0  0
   19.2056  -23.8871   -6.7195 C   0  0  0  0  0  0  0  0  0  0  0  0
   20.6501  -23.6361   -7.0364 C   0  0  0  0  0  0  0  0  0  0  0  0
   20.7121  -22.7180   -8.2209 C   0  0  0  0  0  0  0  0  0  0  0  0
   19.3058  -22.4015   -8.6361 C   0  0  0  0  0  0  0  0  0  0  0  0
   19.9721  -21.5767   -9.6972 C   0  0  0  0  0  0  0  0  0  0  0  0
   20.6383  -20.7520  -10.7583 C   0  0  0  0  0  0  0  0  0  0  0  0
   21.3045  -19.9272  -11.8195 O   0  0  0  0  0  0  0  0  0  0  0  0
   18.3748  -23.1240   -7.7082 C   0  0  0  0  0  0  0  0  0  0  0  0
   13.6714  -25.4137   -4.7893 H   0  0  0  0  0  0  0  0  0  0  0  0
   15.7634  -26.3485   -3.5646 H   0  0  0  0  0  0  0  0  0  0  0  0
   14.2384  -24.8115   -6.7055 H   0  0  0  0  0  0  0  0  0  0  0  0
   16.0505  -23.4070   -6.7579 H   0  0  0  0  0  0  0  0  0  0  0  0
   13.6874  -23.5152   -7.2424 H   0  0  0  0  0  0  0  0  0  0  0  0
   16.1396  -22.6146   -8.3818 H   0  0  0  0  0  0  0  0  0  0  0  0
   15.4966  -21.7359   -9.5235 H   0  0  0  0  0  0  0  0  0  0  0  0
   14.1022  -20.8460  -10.6843 H   0  0  0  0  0  0  0  0  0  0  0  0
   11.8687  -21.1867  -10.2631 H   0  0  0  0  0  0  0  0  0  0  0  0
   11.2992  -22.3762   -8.7317 H   0  0  0  0  0  0  0  0  0  0  0  0
   12.7106  -23.2974   -7.5303 H   0  0  0  0  0  0  0  0  0  0  0  0
   17.3759  -25.7758   -4.2910 H   0  0  0  0  0  0  0  0  0  0  0  0
   20.5237  -25.0539   -5.1966 H   0  0  0  0  0  0  0  0  0  0  0  0
   18.8666  -25.8716   -4.1546 H   0  0  0  0  0  0  0  0  0  0  0  0
   19.3756  -24.3919   -6.0612 H   0  0  0  0  0  0  0  0  0  0  0  0
   16.9768  -23.7568   -6.8983 H   0  0  0  0  0  0  0  0  0  0  0  0
   19.8070  -24.7274   -5.6322 H   0  0  0  0  0  0  0  0  0  0  0  0
   20.9011  -24.5414   -5.8669 H   0  0  0  0  0  0  0  0  0  0  0  0
   22.1471  -23.5744   -7.1088 H   0  0  0  0  0  0  0  0  0  0  0  0
   22.1961  -22.8482   -8.0457 H   0  0  0  0  0  0  0  0  0  0  0  0
   21.2586  -21.8610   -9.3241 H   0  0  0  0  0  0  0  0  0  0  0  0
   18.0390  -21.9125   -9.2732 H   0  0  0  0  0  0  0  0  0  0  0  0
   18.6281  -21.1742  -10.2280 H   0  0  0  0  0  0  0  0  0  0  0  0
   21.3872  -21.8758   -9.2997 H   0  0  0  0  0  0  0  0  0  0  0  0
   21.9822  -21.1585  -10.2305 H   0  0  0  0  0  0  0  0  0  0  0  0
   19.2943  -20.3454  -11.2862 H   0  0  0  0  0  0  0  0  0  0  0  0
   22.8014  -19.8627  -11.8898 H   0  0  0  0  0  0  0  0  0  0  0  0
   17.2153  -22.5439   -8.4624 H   0  0  0  0  0  0  0  0  0  0  0  0
  1  2  2  3
  2  3  1  0
  3  4  1  0
  4  5  1  0
  5  6  1  0
  6  7  1  0
  2  8  1  0
  8  9  1  0
  8 10  1  0
 10 11  1  0
 11 12  1  0
 12 13  1  0
 13 14  1  0
 14 15  1  0
 15 16  1  0
 16 17  1  0
 14 18  1  0
  7  5  1  0
 18 10  1  0
 18 11  1  0
  1 19  1  0
  1 20  1  0
  3 21  1  0
  3 22  1  0
  4 23  1  0
  4 24  1  0
  5 25  1  0
  6 26  1  0
  6 27  1  0
  7 28  1  0
  7 29  1  0
  8 30  1  0
  9 31  1  0
  9 32  1  0
  9 33  1  0
 10 34  1  0
 11 35  1  0
 12 36  1  0
 12 37  1  0
 13 38  1  0
 13 39  1  0
 14 40  1  0
 15 41  1  0
 15 42  1  0
 16 43  1  0
 16 44  1  0
 17 45  1  0
 18 46  1  0
M  END
